                                  MODFLOW-2005     
      U.S. GEOLOGICAL SURVEY MODULAR FINITE-DIFFERENCE GROUND-WATER FLOW MODEL
                            VERSION 1.12.00 2/3/2017

 LIST FILE: model.list
                         UNIT    2

 OPENING model.dis
 FILE TYPE:DIS   UNIT   11   STATUS:OLD    
 FORMAT:FORMATTED              ACCESS:SEQUENTIAL          

 OPENING model.bas
 FILE TYPE:BAS6   UNIT   13   STATUS:OLD    
 FORMAT:FORMATTED              ACCESS:SEQUENTIAL          

 OPENING model.chd
 FILE TYPE:CHD   UNIT   24   STATUS:OLD    
 FORMAT:FORMATTED              ACCESS:SEQUENTIAL          

 OPENING model.wel
 FILE TYPE:WEL   UNIT   20   STATUS:OLD    
 FORMAT:FORMATTED              ACCESS:SEQUENTIAL          

 OPENING model.lpf
 FILE TYPE:LPF   UNIT   15   STATUS:OLD    
 FORMAT:FORMATTED              ACCESS:SEQUENTIAL          

 OPENING model.oc
 FILE TYPE:OC   UNIT   14   STATUS:OLD    
 FORMAT:FORMATTED              ACCESS:SEQUENTIAL          

 OPENING model.pcg
 FILE TYPE:PCG   UNIT   27   STATUS:OLD    
 FORMAT:FORMATTED              ACCESS:SEQUENTIAL          

 OPENING model.cbc
 FILE TYPE:DATA(BINARY)   UNIT   53   STATUS:REPLACE
 FORMAT:BINARY                 ACCESS:SEQUENTIAL          

 OPENING model.hds
 FILE TYPE:DATA(BINARY)   UNIT   51   STATUS:REPLACE
 FORMAT:BINARY                 ACCESS:SEQUENTIAL          

 OPENING model.ddn
 FILE TYPE:DATA(BINARY)   UNIT   52   STATUS:REPLACE
 FORMAT:BINARY                 ACCESS:SEQUENTIAL          

 BAS -- BASIC PACKAGE, VERSION 7, 5/2/2005 INPUT READ FROM UNIT   13
 
 MODFLOW was compiled using mixed precision
 Precision of REAL variables:           6
 Precision of DOUBLE PRECISION variables:          15

 DISCRETIZATION INPUT DATA READ FROM UNIT   11
 # DIS package for  MODFLOW-2005, generated by Flopy.
    5 LAYERS        10 ROWS        10 COLUMNS
    5 STRESS PERIOD(S) IN SIMULATION
 MODEL TIME UNIT IS DAYS
 MODEL LENGTH UNIT IS METERS
  Confining bed flag for each layer:
   0   0   0   0   0

                     DELR =   10.0000    

                     DELC =   10.0000    

 TOP ELEVATION OF LAYER 1 =   50.0000    

   MODEL LAYER BOTTOM EL. =   47.0000     FOR LAYER   1

   MODEL LAYER BOTTOM EL. =   30.0000     FOR LAYER   2

   MODEL LAYER BOTTOM EL. =   20.0000     FOR LAYER   3

   MODEL LAYER BOTTOM EL. =   10.0000     FOR LAYER   4

   MODEL LAYER BOTTOM EL. =   0.00000     FOR LAYER   5


 STRESS PERIOD     LENGTH       TIME STEPS     MULTIPLIER FOR DELT    SS FLAG
 ----------------------------------------------------------------------------
        1         1.000000          1                    1.000         SS
        2         1.000000          1                    1.000         TR
        3         1.000000          1                    1.000         TR
        4         1.000000          1                    1.000         TR
        5         1.000000          1                    1.000         TR

 COMBINED STEADY-STATE AND TRANSIENT SIMULATION



 
 # BAS6 package for  MODFLOW-2005, generated by Flopy.                           
 THE FREE FORMAT OPTION HAS BEEN SELECTED



                     BOUNDARY ARRAY FOR LAYER   1
 READING ON UNIT   13 WITH FORMAT: (10I10)             



                     BOUNDARY ARRAY FOR LAYER   2
 READING ON UNIT   13 WITH FORMAT: (10I10)             



                     BOUNDARY ARRAY FOR LAYER   3
 READING ON UNIT   13 WITH FORMAT: (10I10)             



                     BOUNDARY ARRAY FOR LAYER   4
 READING ON UNIT   13 WITH FORMAT: (10I10)             



                     BOUNDARY ARRAY FOR LAYER   5
 READING ON UNIT   13 WITH FORMAT: (10I10)             

 AQUIFER HEAD WILL BE SET TO  -999.99     AT ALL NO-FLOW NODES (IBOUND=0).



                       INITIAL HEAD FOR LAYER   1
 READING ON UNIT   13 WITH FORMAT: (10E15.6)           



                       INITIAL HEAD FOR LAYER   2
 READING ON UNIT   13 WITH FORMAT: (10E15.6)           



                       INITIAL HEAD FOR LAYER   3
 READING ON UNIT   13 WITH FORMAT: (10E15.6)           



                       INITIAL HEAD FOR LAYER   4
 READING ON UNIT   13 WITH FORMAT: (10E15.6)           



                       INITIAL HEAD FOR LAYER   5
 READING ON UNIT   13 WITH FORMAT: (10E15.6)           
 # OC package for  MODFLOW-2005, generated by Flopy.

 OUTPUT CONTROL IS SPECIFIED ONLY AT TIME STEPS FOR WHICH OUTPUT IS DESIRED
 COMPACT CELL-BY-CELL BUDGET FILES WILL BE WRITTEN
 AUXILIARY DATA WILL BE SAVED IN CELL-BY-CELL BUDGET FILES
 HEAD PRINT FORMAT CODE IS   0    DRAWDOWN PRINT FORMAT CODE IS   0
 HEADS WILL BE SAVED ON UNIT   51    DRAWDOWNS WILL BE SAVED ON UNIT   52

 LPF -- LAYER-PROPERTY FLOW PACKAGE, VERSION 7, 5/2/2005
         INPUT READ FROM UNIT   15
 # LPF package for  MODFLOW-2005, generated by Flopy.
 CELL-BY-CELL FLOWS WILL BE SAVED ON UNIT   53
 HEAD AT CELLS THAT CONVERT TO DRY= -1.00000E+30
 No named parameters

   LAYER FLAGS:
 LAYER       LAYTYP        LAYAVG         CHANI        LAYVKA        LAYWET
 ---------------------------------------------------------------------------
    1             1             0     1.000E+00             0             0
    2             1             0     1.000E+00             0             0
    3             1             0     1.000E+00             0             0
    4             1             0     1.000E+00             0             0
    5             1             0     1.000E+00             0             0

   INTERPRETATION OF LAYER FLAGS:
                        INTERBLOCK     HORIZONTAL    DATA IN
         LAYER TYPE   TRANSMISSIVITY   ANISOTROPY   ARRAY VKA   WETTABILITY
 LAYER      (LAYTYP)      (LAYAVG)       (CHANI)      (LAYVKA)      (LAYWET)
 ---------------------------------------------------------------------------
    1   CONVERTIBLE      HARMONIC     1.000E+00    VERTICAL K  NON-WETTABLE
    2   CONVERTIBLE      HARMONIC     1.000E+00    VERTICAL K  NON-WETTABLE
    3   CONVERTIBLE      HARMONIC     1.000E+00    VERTICAL K  NON-WETTABLE
    4   CONVERTIBLE      HARMONIC     1.000E+00    VERTICAL K  NON-WETTABLE
    5   CONVERTIBLE      HARMONIC     1.000E+00    VERTICAL K  NON-WETTABLE

 WETTING CAPABILITY IS NOT ACTIVE IN ANY LAYER

    HYD. COND. ALONG ROWS =   1.00000     FOR LAYER   1

      VERTICAL HYD. COND. =   1.00000     FOR LAYER   1

         SPECIFIC STORAGE =  1.000000E-04 FOR LAYER   1

           SPECIFIC YIELD =  0.170000     FOR LAYER   1

    HYD. COND. ALONG ROWS =   1.00000     FOR LAYER   2

      VERTICAL HYD. COND. =   1.00000     FOR LAYER   2

         SPECIFIC STORAGE =  1.000000E-04 FOR LAYER   2

           SPECIFIC YIELD =  0.170000     FOR LAYER   2

    HYD. COND. ALONG ROWS =   1.00000     FOR LAYER   3

      VERTICAL HYD. COND. =   1.00000     FOR LAYER   3

         SPECIFIC STORAGE =  1.000000E-04 FOR LAYER   3

           SPECIFIC YIELD =  0.170000     FOR LAYER   3

    HYD. COND. ALONG ROWS =   1.00000     FOR LAYER   4

      VERTICAL HYD. COND. =   1.00000     FOR LAYER   4

         SPECIFIC STORAGE =  1.000000E-04 FOR LAYER   4

           SPECIFIC YIELD =  0.170000     FOR LAYER   4

    HYD. COND. ALONG ROWS =   1.00000     FOR LAYER   5

      VERTICAL HYD. COND. =   1.00000     FOR LAYER   5

         SPECIFIC STORAGE =  1.000000E-04 FOR LAYER   5

           SPECIFIC YIELD =  0.170000     FOR LAYER   5

 WEL -- WELL PACKAGE, VERSION 7, 5/2/2005 INPUT READ FROM UNIT   20
 # WEL package for  MODFLOW-2005, generated by Flopy.
 No named parameters
 MAXIMUM OF      1 ACTIVE WELLS AT ONE TIME
 CELL-BY-CELL FLOWS WILL BE SAVED ON UNIT   53


     0 Well parameters

 CHD -- TIME-VARIANT SPECIFIED-HEAD OPTION, VERSION 7, 5/2/2005
 INPUT READ FROM UNIT   24
 # CHD package for  MODFLOW-2005, generated by Flopy.
 No named parameters
 MAXIMUM OF     20 TIME-VARIANT SPECIFIED-HEAD CELLS AT ONE TIME


     0 TIME-VARIANT SPECIFIED-HEAD PARAMETERS

 PCG -- CONJUGATE-GRADIENT SOLUTION PACKAGE, VERSION 7, 5/2/2005
 # PCG package for  MODFLOW-2005, generated by Flopy.
 MAXIMUM OF     50 CALLS OF SOLUTION ROUTINE
 MAXIMUM OF     30 INTERNAL ITERATIONS PER CALL TO SOLUTION ROUTINE
 MATRIX PRECONDITIONING TYPE :    1



                                    SOLUTION BY THE CONJUGATE-GRADIENT METHOD
                                   -------------------------------------------
                    MAXIMUM NUMBER OF CALLS TO PCG ROUTINE =       50
                        MAXIMUM ITERATIONS PER CALL TO PCG =       30
                               MATRIX PRECONDITIONING TYPE =        1
        RELAXATION FACTOR (ONLY USED WITH PRECOND. TYPE 1) =    0.10000E+01
 PARAMETER OF POLYNOMIAL PRECOND. = 2 (2) OR IS CALCULATED :        0
                         HEAD CHANGE CRITERION FOR CLOSURE =    0.10000E-04
                     RESIDUAL CHANGE CRITERION FOR CLOSURE =    0.10000E+00
            PCG HEAD AND RESIDUAL CHANGE PRINTOUT INTERVAL =      999
     PRINTING FROM SOLVER IS LIMITED(1) OR SUPPRESSED (>1) =        3
                            STEADY-STATE DAMPING PARAMETER =    0.10000E+01
                               TRANSIENT DAMPING PARAMETER =    0.10000E+01
1
                            STRESS PERIOD NO.    1, LENGTH =   1.000000    
                            -----------------------------------------------

                              NUMBER OF TIME STEPS =     1

                               MULTIPLIER FOR DELT =     1.000

                            INITIAL TIME STEP SIZE =   1.000000    

 WELL NO.  LAYER   ROW   COL   STRESS RATE         
 --------------------------------------------------
      1      3      6      6       0.000    

      1 WELL 

 CHD NO.   LAYER   ROW   COL    START HEAD        END HEAD         
 ------------------------------------------------------------------
      1      2      1      1       47.00           47.00    
      2      2      1     10       47.00           47.00    
      3      2      2      1       47.00           47.00    
      4      2      2     10       47.00           47.00    
      5      2      3      1       47.00           47.00    
      6      2      3     10       47.00           47.00    
      7      2      4      1       47.00           47.00    
      8      2      4     10       47.00           47.00    
      9      2      5      1       47.00           47.00    
     10      2      5     10       47.00           47.00    
     11      2      6      1       47.00           47.00    
     12      2      6     10       47.00           47.00    
     13      2      7      1       47.00           47.00    
     14      2      7     10       47.00           47.00    
     15      2      8      1       47.00           47.00    
     16      2      8     10       47.00           47.00    
     17      2      9      1       47.00           47.00    
     18      2      9     10       47.00           47.00    
     19      2     10      1       47.00           47.00    
     20      2     10     10       47.00           47.00    


     20 TIME-VARIANT SPECIFIED-HEAD CELLS
 
 SOLVING FOR HEAD 

 CELL CONVERSIONS FOR ITER.=  9  LAYER=  1  STEP=  1  PERIOD=   1   (ROW,COL)
    DRY(  1,  5)   DRY(  1,  6)   DRY(  1,  7)   DRY(  1,  8)   DRY(  2,  6)   
    DRY(  2,  7)   DRY(  2,  8)   DRY(  3,  7)   DRY(  3,  8)   DRY(  4,  7)   
    DRY(  4,  8)   DRY(  5,  7)   DRY(  5,  8)   DRY(  6,  8)   DRY(  7,  8)   
    DRY(  8,  7)   DRY(  8,  8)   DRY(  9,  7)   DRY(  9,  8)   DRY( 10,  7)   
    DRY( 10,  8)   

 OUTPUT CONTROL FOR STRESS PERIOD    1   TIME STEP    1
    PRINT HEAD FOR ALL LAYERS
    PRINT BUDGET
    PRINT DRAWDOWN FOR ALL LAYERS
    SAVE HEAD FOR ALL LAYERS
    SAVE BUDGET
    SAVE DRAWDOWN FOR ALL LAYERS
 UBDSV2 SAVING "   CONSTANT HEAD" ON UNIT  53 AT TIME STEP  1, STRESS PERIOD   1
 UBDSV1 SAVING "FLOW RIGHT FACE " ON UNIT  53 AT TIME STEP  1, STRESS PERIOD   1
 UBDSV1 SAVING "FLOW FRONT FACE " ON UNIT  53 AT TIME STEP  1, STRESS PERIOD   1
 UBDSV1 SAVING "FLOW LOWER FACE " ON UNIT  53 AT TIME STEP  1, STRESS PERIOD   1
 UBDSV4 SAVING "           WELLS" ON UNIT  53 AT TIME STEP  1, STRESS PERIOD   1
1
              HEAD IN LAYER   1 AT END OF TIME STEP   1 IN STRESS PERIOD    1
  ---------------------------------------------------------------------------

            1           2           3           4           5           6           7           8           9          10
 ........................................................................................................................
   1    48.00       47.00       47.00       47.00     -1.0000E+30 -1.0000E+30 -1.0000E+30 -1.0000E+30   47.00       48.00    
   2    48.00       47.00       47.00       47.00       47.00     -1.0000E+30 -1.0000E+30 -1.0000E+30   47.00       48.00    
   3    48.00       47.00       47.00       47.00       47.00       47.00     -1.0000E+30 -1.0000E+30   47.00       48.00    
   4    48.00       47.00       47.00       47.00       47.00       47.00     -1.0000E+30 -1.0000E+30   47.00       48.00    
   5    48.00       47.00       47.00       47.00       47.00       47.00     -1.0000E+30 -1.0000E+30   47.00       48.00    
   6    48.00       47.00       47.00       47.00       47.00       47.00       47.00     -1.0000E+30   47.00       48.00    
   7    48.00       47.00       47.00       47.00       47.00       47.00       47.00     -1.0000E+30   47.00       48.00    
   8    48.00       47.00       47.00       47.00       47.00       47.00     -1.0000E+30 -1.0000E+30   47.00       48.00    
   9    48.00       47.00       47.00       47.00       47.00       47.00     -1.0000E+30 -1.0000E+30   47.00       48.00    
  10    48.00       47.00       47.00       47.00       47.00       47.00     -1.0000E+30 -1.0000E+30   47.00       48.00    
1
              HEAD IN LAYER   2 AT END OF TIME STEP   1 IN STRESS PERIOD    1
  ---------------------------------------------------------------------------

            1           2           3           4           5           6           7           8           9          10
 ........................................................................................................................
   1    47.00       47.00       47.00       47.00       47.00       47.00       47.00       47.00       47.00       47.00    
   2    47.00       47.00       47.00       47.00       47.00       47.00       47.00       47.00       47.00       47.00    
   3    47.00       47.00       47.00       47.00       47.00       47.00       47.00       47.00       47.00       47.00    
   4    47.00       47.00       47.00       47.00       47.00       47.00       47.00       47.00       47.00       47.00    
   5    47.00       47.00       47.00       47.00       47.00       47.00       47.00       47.00       47.00       47.00    
   6    47.00       47.00       47.00       47.00       47.00       47.00       47.00       47.00       47.00       47.00    
   7    47.00       47.00       47.00       47.00       47.00       47.00       47.00       47.00       47.00       47.00    
   8    47.00       47.00       47.00       47.00       47.00       47.00       47.00       47.00       47.00       47.00    
   9    47.00       47.00       47.00       47.00       47.00       47.00       47.00       47.00       47.00       47.00    
  10    47.00       47.00       47.00       47.00       47.00       47.00       47.00       47.00       47.00       47.00    
1
              HEAD IN LAYER   3 AT END OF TIME STEP   1 IN STRESS PERIOD    1
  ---------------------------------------------------------------------------

            1           2           3           4           5           6           7           8           9          10
 ........................................................................................................................
   1    47.00       47.00       47.00       47.00       47.00       47.00       47.00       47.00       47.00       47.00    
   2    47.00       47.00       47.00       47.00       47.00       47.00       47.00       47.00       47.00       47.00    
   3    47.00       47.00       47.00       47.00       47.00       47.00       47.00       47.00       47.00       47.00    
   4    47.00       47.00       47.00       47.00       47.00       47.00       47.00       47.00       47.00       47.00    
   5    47.00       47.00       47.00       47.00       47.00       47.00       47.00       47.00       47.00       47.00    
   6    47.00       47.00       47.00       47.00       47.00       47.00       47.00       47.00       47.00       47.00    
   7    47.00       47.00       47.00       47.00       47.00       47.00       47.00       47.00       47.00       47.00    
   8    47.00       47.00       47.00       47.00       47.00       47.00       47.00       47.00       47.00       47.00    
   9    47.00       47.00       47.00       47.00       47.00       47.00       47.00       47.00       47.00       47.00    
  10    47.00       47.00       47.00       47.00       47.00       47.00       47.00       47.00       47.00       47.00    
1
              HEAD IN LAYER   4 AT END OF TIME STEP   1 IN STRESS PERIOD    1
  ---------------------------------------------------------------------------

            1           2           3           4           5           6           7           8           9          10
 ........................................................................................................................
   1    47.00       47.00       47.00       47.00       47.00       47.00       47.00       47.00       47.00       47.00    
   2    47.00       47.00       47.00       47.00       47.00       47.00       47.00       47.00       47.00       47.00    
   3    47.00       47.00       47.00       47.00       47.00       47.00       47.00       47.00       47.00       47.00    
   4    47.00       47.00       47.00       47.00       47.00       47.00       47.00       47.00       47.00       47.00    
   5    47.00       47.00       47.00       47.00       47.00       47.00       47.00       47.00       47.00       47.00    
   6    47.00       47.00       47.00       47.00       47.00       47.00       47.00       47.00       47.00       47.00    
   7    47.00       47.00       47.00       47.00       47.00       47.00       47.00       47.00       47.00       47.00    
   8    47.00       47.00       47.00       47.00       47.00       47.00       47.00       47.00       47.00       47.00    
   9    47.00       47.00       47.00       47.00       47.00       47.00       47.00       47.00       47.00       47.00    
  10    47.00       47.00       47.00       47.00       47.00       47.00       47.00       47.00       47.00       47.00    
1
              HEAD IN LAYER   5 AT END OF TIME STEP   1 IN STRESS PERIOD    1
  ---------------------------------------------------------------------------

            1           2           3           4           5           6           7           8           9          10
 ........................................................................................................................
   1    47.00       47.00       47.00       47.00       47.00       47.00       47.00       47.00       47.00       47.00    
   2    47.00       47.00       47.00       47.00       47.00       47.00       47.00       47.00       47.00       47.00    
   3    47.00       47.00       47.00       47.00       47.00       47.00       47.00       47.00       47.00       47.00    
   4    47.00       47.00       47.00       47.00       47.00       47.00       47.00       47.00       47.00       47.00    
   5    47.00       47.00       47.00       47.00       47.00       47.00       47.00       47.00       47.00       47.00    
   6    47.00       47.00       47.00       47.00       47.00       47.00       47.00       47.00       47.00       47.00    
   7    47.00       47.00       47.00       47.00       47.00       47.00       47.00       47.00       47.00       47.00    
   8    47.00       47.00       47.00       47.00       47.00       47.00       47.00       47.00       47.00       47.00    
   9    47.00       47.00       47.00       47.00       47.00       47.00       47.00       47.00       47.00       47.00    
  10    47.00       47.00       47.00       47.00       47.00       47.00       47.00       47.00       47.00       47.00    

 HEAD WILL BE SAVED ON UNIT   51 AT END OF TIME STEP    1, STRESS PERIOD    1
1
          DRAWDOWN IN LAYER   1 AT END OF TIME STEP   1 IN STRESS PERIOD    1
  ---------------------------------------------------------------------------

            1           2           3           4           5           6           7           8           9          10
 ........................................................................................................................
   1    0.000       1.000       1.000       1.000     -1.0000E+30 -1.0000E+30 -1.0000E+30 -1.0000E+30   1.000       0.000    
   2    0.000       1.000       1.000       1.000       1.000     -1.0000E+30 -1.0000E+30 -1.0000E+30   1.000       0.000    
   3    0.000       1.000       1.000       1.000       1.000       1.000     -1.0000E+30 -1.0000E+30   1.000       0.000    
   4    0.000       1.000       1.000       1.000       1.000       1.000     -1.0000E+30 -1.0000E+30   1.000       0.000    
   5    0.000       1.000       1.000       1.000       1.000       1.000     -1.0000E+30 -1.0000E+30   1.000       0.000    
   6    0.000       1.000       1.000       1.000       1.000       1.000       1.000     -1.0000E+30   1.000       0.000    
   7    0.000       1.000       1.000       1.000       1.000       1.000       1.000     -1.0000E+30   1.000       0.000    
   8    0.000       1.000       1.000       1.000       1.000       1.000     -1.0000E+30 -1.0000E+30   1.000       0.000    
   9    0.000       1.000       1.000       1.000       1.000       1.000     -1.0000E+30 -1.0000E+30   1.000       0.000    
  10    0.000       1.000       1.000       1.000       1.000       1.000     -1.0000E+30 -1.0000E+30   1.000       0.000    
1
          DRAWDOWN IN LAYER   2 AT END OF TIME STEP   1 IN STRESS PERIOD    1
  ---------------------------------------------------------------------------

            1           2           3           4           5           6           7           8           9          10
 ........................................................................................................................
   1    1.000       1.000       1.000       1.000       1.000       1.000       1.000       1.000       1.000       1.000    
   2    1.000       1.000       1.000       1.000       1.000       1.000       1.000       1.000       1.000       1.000    
   3    1.000       1.000       1.000       1.000       1.000       1.000       1.000       1.000       1.000       1.000    
   4    1.000       1.000       1.000       1.000       1.000       1.000       1.000       1.000       1.000       1.000    
   5    1.000       1.000       1.000       1.000       1.000       1.000       1.000       1.000       1.000       1.000    
   6    1.000       1.000       1.000       1.000       1.000       1.000       1.000       1.000       1.000       1.000    
   7    1.000       1.000       1.000       1.000       1.000       1.000       1.000       1.000       1.000       1.000    
   8    1.000       1.000       1.000       1.000       1.000       1.000       1.000       1.000       1.000       1.000    
   9    1.000       1.000       1.000       1.000       1.000       1.000       1.000       1.000       1.000       1.000    
  10    1.000       1.000       1.000       1.000       1.000       1.000       1.000       1.000       1.000       1.000    
1
          DRAWDOWN IN LAYER   3 AT END OF TIME STEP   1 IN STRESS PERIOD    1
  ---------------------------------------------------------------------------

            1           2           3           4           5           6           7           8           9          10
 ........................................................................................................................
   1    1.000       1.000       1.000       1.000       1.000       1.000       1.000       1.000       1.000       1.000    
   2    1.000       1.000       1.000       1.000       1.000       1.000       1.000       1.000       1.000       1.000    
   3    1.000       1.000       1.000       1.000       1.000       1.000       1.000       1.000       1.000       1.000    
   4    1.000       1.000       1.000       1.000       1.000       1.000       1.000       1.000       1.000       1.000    
   5    1.000       1.000       1.000       1.000       1.000       1.000       1.000       1.000       1.000       1.000    
   6    1.000       1.000       1.000       1.000       1.000       1.000       1.000       1.000       1.000       1.000    
   7    1.000       1.000       1.000       1.000       1.000       1.000       1.000       1.000       1.000       1.000    
   8    1.000       1.000       1.000       1.000       1.000       1.000       1.000       1.000       1.000       1.000    
   9    1.000       1.000       1.000       1.000       1.000       1.000       1.000       1.000       1.000       1.000    
  10    1.000       1.000       1.000       1.000       1.000       1.000       1.000       1.000       1.000       1.000    
1
          DRAWDOWN IN LAYER   4 AT END OF TIME STEP   1 IN STRESS PERIOD    1
  ---------------------------------------------------------------------------

            1           2           3           4           5           6           7           8           9          10
 ........................................................................................................................
   1    1.000       1.000       1.000       1.000       1.000       1.000       1.000       1.000       1.000       1.000    
   2    1.000       1.000       1.000       1.000       1.000       1.000       1.000       1.000       1.000       1.000    
   3    1.000       1.000       1.000       1.000       1.000       1.000       1.000       1.000       1.000       1.000    
   4    1.000       1.000       1.000       1.000       1.000       1.000       1.000       1.000       1.000       1.000    
   5    1.000       1.000       1.000       1.000       1.000       1.000       1.000       1.000       1.000       1.000    
   6    1.000       1.000       1.000       1.000       1.000       1.000       1.000       1.000       1.000       1.000    
   7    1.000       1.000       1.000       1.000       1.000       1.000       1.000       1.000       1.000       1.000    
   8    1.000       1.000       1.000       1.000       1.000       1.000       1.000       1.000       1.000       1.000    
   9    1.000       1.000       1.000       1.000       1.000       1.000       1.000       1.000       1.000       1.000    
  10    1.000       1.000       1.000       1.000       1.000       1.000       1.000       1.000       1.000       1.000    
1
          DRAWDOWN IN LAYER   5 AT END OF TIME STEP   1 IN STRESS PERIOD    1
  ---------------------------------------------------------------------------

            1           2           3           4           5           6           7           8           9          10
 ........................................................................................................................
   1    1.000       1.000       1.000       1.000       1.000       1.000       1.000       1.000       1.000       1.000    
   2    1.000       1.000       1.000       1.000       1.000       1.000       1.000       1.000       1.000       1.000    
   3    1.000       1.000       1.000       1.000       1.000       1.000       1.000       1.000       1.000       1.000    
   4    1.000       1.000       1.000       1.000       1.000       1.000       1.000       1.000       1.000       1.000    
   5    1.000       1.000       1.000       1.000       1.000       1.000       1.000       1.000       1.000       1.000    
   6    1.000       1.000       1.000       1.000       1.000       1.000       1.000       1.000       1.000       1.000    
   7    1.000       1.000       1.000       1.000       1.000       1.000       1.000       1.000       1.000       1.000    
   8    1.000       1.000       1.000       1.000       1.000       1.000       1.000       1.000       1.000       1.000    
   9    1.000       1.000       1.000       1.000       1.000       1.000       1.000       1.000       1.000       1.000    
  10    1.000       1.000       1.000       1.000       1.000       1.000       1.000       1.000       1.000       1.000    

 DRAWDOWN WILL BE SAVED ON UNIT   52 AT END OF TIME STEP    1, STRESS PERIOD    1
1
  VOLUMETRIC BUDGET FOR ENTIRE MODEL AT END OF TIME STEP    1, STRESS PERIOD   1
  ------------------------------------------------------------------------------

     CUMULATIVE VOLUMES      L**3       RATES FOR THIS TIME STEP      L**3/T
     ------------------                 ------------------------

           IN:                                      IN:
           ---                                      ---
             STORAGE =           0.0000               STORAGE =           0.0000
       CONSTANT HEAD =       3.8909E-04         CONSTANT HEAD =       3.8909E-04
               WELLS =           0.0000                 WELLS =           0.0000

            TOTAL IN =       3.8909E-04              TOTAL IN =       3.8909E-04

          OUT:                                     OUT:
          ----                                     ----
             STORAGE =           0.0000               STORAGE =           0.0000
       CONSTANT HEAD =       9.8165E-04         CONSTANT HEAD =       9.8165E-04
               WELLS =           0.0000                 WELLS =           0.0000

           TOTAL OUT =       9.8165E-04             TOTAL OUT =       9.8165E-04

            IN - OUT =      -5.9256E-04              IN - OUT =      -5.9256E-04

 PERCENT DISCREPANCY =         -86.46     PERCENT DISCREPANCY =         -86.46






         TIME SUMMARY AT END OF TIME STEP    1 IN STRESS PERIOD    1
                    SECONDS     MINUTES      HOURS       DAYS        YEARS
                    -----------------------------------------------------------
   TIME STEP LENGTH  86400.      1440.0      24.000      1.0000     2.73785E-03
 STRESS PERIOD TIME  86400.      1440.0      24.000      1.0000     2.73785E-03
         TOTAL TIME  86400.      1440.0      24.000      1.0000     2.73785E-03
1
1
                            STRESS PERIOD NO.    2, LENGTH =   1.000000    
                            -----------------------------------------------

                              NUMBER OF TIME STEPS =     1

                               MULTIPLIER FOR DELT =     1.000

                            INITIAL TIME STEP SIZE =   1.000000    

 WELL NO.  LAYER   ROW   COL   STRESS RATE         
 --------------------------------------------------
      1      4      6      6      -20.00    

      1 WELL 

 CHD NO.   LAYER   ROW   COL    START HEAD        END HEAD         
 ------------------------------------------------------------------
      1      2      1      1       48.00           48.00    
      2      2      1     10       48.00           48.00    
      3      2      2      1       48.00           48.00    
      4      2      2     10       48.00           48.00    
      5      2      3      1       48.00           48.00    
      6      2      3     10       48.00           48.00    
      7      2      4      1       48.00           48.00    
      8      2      4     10       48.00           48.00    
      9      2      5      1       48.00           48.00    
     10      2      5     10       48.00           48.00    
     11      2      6      1       48.00           48.00    
     12      2      6     10       48.00           48.00    
     13      2      7      1       48.00           48.00    
     14      2      7     10       48.00           48.00    
     15      2      8      1       48.00           48.00    
     16      2      8     10       48.00           48.00    
     17      2      9      1       48.00           48.00    
     18      2      9     10       48.00           48.00    
     19      2     10      1       48.00           48.00    
     20      2     10     10       48.00           48.00    


     20 TIME-VARIANT SPECIFIED-HEAD CELLS
 
 SOLVING FOR HEAD 

 CELL CONVERSIONS FOR ITER.=  1  LAYER=  1  STEP=  1  PERIOD=   2   (ROW,COL)
    DRY(  3,  5)   DRY(  3,  6)   DRY(  4,  5)   DRY(  4,  6)   DRY(  5,  5)   
    DRY(  5,  6)   DRY(  6,  5)   DRY(  6,  6)   DRY(  6,  7)   DRY(  7,  5)   
    DRY(  7,  6)   DRY(  7,  7)   DRY(  8,  5)   DRY(  8,  6)   DRY(  9,  5)   
    DRY(  9,  6)   DRY( 10,  5)   DRY( 10,  6)   

 OUTPUT CONTROL FOR STRESS PERIOD    2   TIME STEP    1
    PRINT HEAD FOR ALL LAYERS
    PRINT BUDGET
    PRINT DRAWDOWN FOR ALL LAYERS
    SAVE HEAD FOR ALL LAYERS
    SAVE BUDGET
    SAVE DRAWDOWN FOR ALL LAYERS
 UBDSV1 SAVING "         STORAGE" ON UNIT  53 AT TIME STEP  1, STRESS PERIOD   2
 UBDSV2 SAVING "   CONSTANT HEAD" ON UNIT  53 AT TIME STEP  1, STRESS PERIOD   2
 UBDSV1 SAVING "FLOW RIGHT FACE " ON UNIT  53 AT TIME STEP  1, STRESS PERIOD   2
 UBDSV1 SAVING "FLOW FRONT FACE " ON UNIT  53 AT TIME STEP  1, STRESS PERIOD   2
 UBDSV1 SAVING "FLOW LOWER FACE " ON UNIT  53 AT TIME STEP  1, STRESS PERIOD   2
 UBDSV4 SAVING "           WELLS" ON UNIT  53 AT TIME STEP  1, STRESS PERIOD   2
1
              HEAD IN LAYER   1 AT END OF TIME STEP   1 IN STRESS PERIOD    2
  ---------------------------------------------------------------------------

            1           2           3           4           5           6           7           8           9          10
 ........................................................................................................................
   1    48.00       47.24       47.16       47.14     -1.0000E+30 -1.0000E+30 -1.0000E+30 -1.0000E+30   47.27       48.00    
   2    48.00       47.24       47.16       47.13       47.14     -1.0000E+30 -1.0000E+30 -1.0000E+30   47.27       48.00    
   3    48.00       47.24       47.16       47.13     -1.0000E+30 -1.0000E+30 -1.0000E+30 -1.0000E+30   47.27       48.00    
   4    48.00       47.24       47.16       47.13     -1.0000E+30 -1.0000E+30 -1.0000E+30 -1.0000E+30   47.27       48.00    
   5    48.00       47.24       47.16       47.13     -1.0000E+30 -1.0000E+30 -1.0000E+30 -1.0000E+30   47.27       48.00    
   6    48.00       47.24       47.16       47.13     -1.0000E+30 -1.0000E+30 -1.0000E+30 -1.0000E+30   47.27       48.00    
   7    48.00       47.24       47.16       47.13     -1.0000E+30 -1.0000E+30 -1.0000E+30 -1.0000E+30   47.27       48.00    
   8    48.00       47.24       47.16       47.14     -1.0000E+30 -1.0000E+30 -1.0000E+30 -1.0000E+30   47.27       48.00    
   9    48.00       47.24       47.16       47.14     -1.0000E+30 -1.0000E+30 -1.0000E+30 -1.0000E+30   47.27       48.00    
  10    48.00       47.24       47.16       47.14     -1.0000E+30 -1.0000E+30 -1.0000E+30 -1.0000E+30   47.27       48.00    
1
              HEAD IN LAYER   2 AT END OF TIME STEP   1 IN STRESS PERIOD    2
  ---------------------------------------------------------------------------

            1           2           3           4           5           6           7           8           9          10
 ........................................................................................................................
   1    48.00       47.58       47.39       47.33       47.38       47.44       47.50       47.57       47.65       48.00    
   2    48.00       47.58       47.39       47.33       47.35       47.43       47.50       47.57       47.65       48.00    
   3    48.00       47.58       47.39       47.33       47.38       47.43       47.49       47.56       47.65       48.00    
   4    48.00       47.58       47.39       47.33       47.38       47.43       47.49       47.56       47.64       48.00    
   5    48.00       47.57       47.39       47.33       47.37       47.42       47.48       47.55       47.64       48.00    
   6    48.00       47.57       47.39       47.33       47.37       47.41       47.47       47.55       47.64       48.00    
   7    48.00       47.58       47.39       47.33       47.38       47.42       47.48       47.55       47.64       48.00    
   8    48.00       47.58       47.39       47.34       47.39       47.43       47.49       47.56       47.64       48.00    
   9    48.00       47.58       47.39       47.34       47.39       47.44       47.50       47.56       47.65       48.00    
  10    48.00       47.58       47.39       47.34       47.40       47.45       47.50       47.57       47.65       48.00    
1
              HEAD IN LAYER   3 AT END OF TIME STEP   1 IN STRESS PERIOD    2
  ---------------------------------------------------------------------------

            1           2           3           4           5           6           7           8           9          10
 ........................................................................................................................
   1    47.69       47.57       47.47       47.43       47.43       47.46       47.50       47.56       47.63       47.73    
   2    47.69       47.57       47.47       47.42       47.42       47.45       47.50       47.56       47.63       47.73    
   3    47.69       47.57       47.47       47.42       47.42       47.44       47.49       47.55       47.62       47.73    
   4    47.69       47.56       47.46       47.41       47.40       47.42       47.47       47.54       47.62       47.72    
   5    47.69       47.56       47.46       47.40       47.38       47.38       47.45       47.53       47.61       47.72    
   6    47.69       47.56       47.46       47.39       47.36       47.32       47.42       47.52       47.61       47.72    
   7    47.69       47.56       47.46       47.40       47.38       47.38       47.45       47.53       47.61       47.72    
   8    47.69       47.57       47.47       47.41       47.41       47.43       47.47       47.54       47.62       47.72    
   9    47.69       47.57       47.47       47.42       47.42       47.45       47.49       47.55       47.62       47.72    
  10    47.69       47.57       47.47       47.43       47.43       47.46       47.50       47.55       47.63       47.73    
1
              HEAD IN LAYER   4 AT END OF TIME STEP   1 IN STRESS PERIOD    2
  ---------------------------------------------------------------------------

            1           2           3           4           5           6           7           8           9          10
 ........................................................................................................................
   1    47.60       47.55       47.49       47.46       47.45       47.47       47.50       47.55       47.60       47.64    
   2    47.60       47.54       47.49       47.45       47.45       47.46       47.50       47.54       47.59       47.64    
   3    47.59       47.54       47.48       47.45       47.43       47.45       47.48       47.53       47.59       47.63    
   4    47.59       47.54       47.48       47.43       47.41       47.41       47.46       47.52       47.58       47.63    
   5    47.59       47.53       47.47       47.42       47.37       47.32       47.42       47.50       47.57       47.62    
   6    47.59       47.53       47.47       47.40       47.31       46.99       47.35       47.49       47.57       47.62    
   7    47.59       47.53       47.47       47.42       47.37       47.32       47.42       47.50       47.57       47.62    
   8    47.59       47.54       47.48       47.43       47.41       47.41       47.46       47.52       47.58       47.63    
   9    47.59       47.54       47.48       47.45       47.44       47.45       47.48       47.53       47.59       47.63    
  10    47.60       47.54       47.49       47.45       47.44       47.46       47.49       47.54       47.59       47.63    
1
              HEAD IN LAYER   5 AT END OF TIME STEP   1 IN STRESS PERIOD    2
  ---------------------------------------------------------------------------

            1           2           3           4           5           6           7           8           9          10
 ........................................................................................................................
   1    47.56       47.53       47.49       47.47       47.46       47.47       47.50       47.54       47.58       47.60    
   2    47.56       47.53       47.49       47.46       47.45       47.47       47.49       47.53       47.57       47.60    
   3    47.56       47.53       47.49       47.46       47.44       47.45       47.48       47.52       47.57       47.60    
   4    47.55       47.52       47.48       47.44       47.42       47.42       47.46       47.51       47.56       47.59    
   5    47.55       47.52       47.47       47.43       47.39       47.37       47.43       47.49       47.55       47.59    
   6    47.55       47.52       47.47       47.41       47.36       47.30       47.40       47.48       47.54       47.58    
   7    47.55       47.52       47.47       47.43       47.39       47.37       47.43       47.49       47.55       47.58    
   8    47.55       47.52       47.48       47.44       47.42       47.42       47.46       47.51       47.56       47.59    
   9    47.56       47.53       47.48       47.45       47.44       47.45       47.48       47.52       47.56       47.59    
  10    47.56       47.53       47.49       47.46       47.45       47.46       47.49       47.53       47.57       47.60    

 HEAD WILL BE SAVED ON UNIT   51 AT END OF TIME STEP    1, STRESS PERIOD    2
1
          DRAWDOWN IN LAYER   1 AT END OF TIME STEP   1 IN STRESS PERIOD    2
  ---------------------------------------------------------------------------

            1           2           3           4           5           6           7           8           9          10
 ........................................................................................................................
   1    0.000      0.7561      0.8404      0.8641     -1.0000E+30 -1.0000E+30 -1.0000E+30 -1.0000E+30  0.7262       0.000    
   2    0.000      0.7563      0.8411      0.8665      0.8576     -1.0000E+30 -1.0000E+30 -1.0000E+30  0.7267       0.000    
   3    0.000      0.7565      0.8411      0.8650     -1.0000E+30 -1.0000E+30 -1.0000E+30 -1.0000E+30  0.7274       0.000    
   4    0.000      0.7567      0.8415      0.8651     -1.0000E+30 -1.0000E+30 -1.0000E+30 -1.0000E+30  0.7284       0.000    
   5    0.000      0.7570      0.8421      0.8663     -1.0000E+30 -1.0000E+30 -1.0000E+30 -1.0000E+30  0.7294       0.000    
   6    0.000      0.7571      0.8423      0.8669     -1.0000E+30 -1.0000E+30 -1.0000E+30 -1.0000E+30  0.7298       0.000    
   7    0.000      0.7569      0.8417      0.8656     -1.0000E+30 -1.0000E+30 -1.0000E+30 -1.0000E+30  0.7293       0.000    
   8    0.000      0.7564      0.8407      0.8635     -1.0000E+30 -1.0000E+30 -1.0000E+30 -1.0000E+30  0.7283       0.000    
   9    0.000      0.7560      0.8397      0.8617     -1.0000E+30 -1.0000E+30 -1.0000E+30 -1.0000E+30  0.7274       0.000    
  10    0.000      0.7557      0.8391      0.8607     -1.0000E+30 -1.0000E+30 -1.0000E+30 -1.0000E+30  0.7268       0.000    
1
          DRAWDOWN IN LAYER   2 AT END OF TIME STEP   1 IN STRESS PERIOD    2
  ---------------------------------------------------------------------------

            1           2           3           4           5           6           7           8           9          10
 ........................................................................................................................
   1    0.000      0.4227      0.6088      0.6665      0.6202      0.5619      0.5004      0.4317      0.3513       0.000    
   2    0.000      0.4232      0.6103      0.6725      0.6500      0.5696      0.5038      0.4338      0.3523       0.000    
   3    0.000      0.4237      0.6104      0.6687      0.6234      0.5681      0.5074      0.4372      0.3541       0.000    
   4    0.000      0.4243      0.6113      0.6689      0.6211      0.5730      0.5139      0.4422      0.3565       0.000    
   5    0.000      0.4251      0.6128      0.6718      0.6268      0.5830      0.5224      0.4477      0.3589       0.000    
   6    0.000      0.4253      0.6135      0.6734      0.6311      0.5914      0.5277      0.4504      0.3600       0.000    
   7    0.000      0.4247      0.6120      0.6702      0.6244      0.5810      0.5212      0.4471      0.3588       0.000    
   8    0.000      0.4236      0.6094      0.6650      0.6146      0.5681      0.5112      0.4412      0.3563       0.000    
   9    0.000      0.4225      0.6069      0.6604      0.6067      0.5584      0.5031      0.4359      0.3540       0.000    
  10    0.000      0.4218      0.6055      0.6579      0.6025      0.5534      0.4988      0.4330      0.3526       0.000    
1
          DRAWDOWN IN LAYER   3 AT END OF TIME STEP   1 IN STRESS PERIOD    2
  ---------------------------------------------------------------------------

            1           2           3           4           5           6           7           8           9          10
 ........................................................................................................................
   1   0.3062      0.4295      0.5263      0.5724      0.5703      0.5416      0.4974      0.4409      0.3695      0.2690    
   2   0.3070      0.4307      0.5283      0.5762      0.5776      0.5473      0.5019      0.4442      0.3717      0.2705    
   3   0.3084      0.4326      0.5313      0.5802      0.5819      0.5564      0.5108      0.4507      0.3760      0.2734    
   4   0.3101      0.4352      0.5358      0.5881      0.5951      0.5763      0.5267      0.4608      0.3819      0.2772    
   5   0.3115      0.4377      0.5409      0.5991      0.6182      0.6161      0.5512      0.4732      0.3881      0.2807    
   6   0.3121      0.4389      0.5436      0.6069      0.6420      0.6797      0.5755      0.4818      0.3915      0.2824    
   7   0.3115      0.4376      0.5404      0.5982      0.6171      0.6152      0.5508      0.4733      0.3884      0.2811    
   8   0.3101      0.4349      0.5348      0.5862      0.5923      0.5744      0.5260      0.4611      0.3827      0.2781    
   9   0.3087      0.4324      0.5299      0.5770      0.5767      0.5534      0.5102      0.4516      0.3776      0.2751    
  10   0.3078      0.4309      0.5272      0.5723      0.5694      0.5445      0.5029      0.4468      0.3747      0.2734    
1
          DRAWDOWN IN LAYER   4 AT END OF TIME STEP   1 IN STRESS PERIOD    2
  ---------------------------------------------------------------------------

            1           2           3           4           5           6           7           8           9          10
 ........................................................................................................................
   1   0.4021      0.4541      0.5091      0.5427      0.5486      0.5317      0.4982      0.4536      0.4035      0.3589    
   2   0.4033      0.4557      0.5116      0.5467      0.5543      0.5380      0.5037      0.4577      0.4065      0.3611    
   3   0.4053      0.4586      0.5162      0.5541      0.5653      0.5524      0.5159      0.4663      0.4122      0.3653    
   4   0.4078      0.4623      0.5229      0.5664      0.5874      0.5854      0.5390      0.4799      0.4202      0.3708    
   5   0.4101      0.4659      0.5303      0.5836      0.6288      0.6760      0.5811      0.4981      0.4287      0.3759    
   6   0.4110      0.4676      0.5347      0.5984      0.6924       1.012      0.6451      0.5134      0.4337      0.3785    
   7   0.4102      0.4659      0.5302      0.5833      0.6284      0.6758      0.5812      0.4985      0.4293      0.3766    
   8   0.4082      0.4625      0.5227      0.5659      0.5868      0.5853      0.5396      0.4810      0.4216      0.3723    
   9   0.4061      0.4592      0.5164      0.5538      0.5649      0.5530      0.5176      0.4687      0.4149      0.3681    
  10   0.4048      0.4572      0.5130      0.5478      0.5554      0.5410      0.5081      0.4626      0.4112      0.3656    
1
          DRAWDOWN IN LAYER   5 AT END OF TIME STEP   1 IN STRESS PERIOD    2
  ---------------------------------------------------------------------------

            1           2           3           4           5           6           7           8           9          10
 ........................................................................................................................
   1   0.4389      0.4687      0.5059      0.5324      0.5396      0.5273      0.4995      0.4621      0.4234      0.3954    
   2   0.4402      0.4705      0.5087      0.5365      0.5453      0.5339      0.5054      0.4666      0.4266      0.3980    
   3   0.4426      0.4738      0.5140      0.5450      0.5576      0.5488      0.5182      0.4759      0.4330      0.4028    
   4   0.4456      0.4781      0.5214      0.5582      0.5793      0.5775      0.5405      0.4900      0.4417      0.4090    
   5   0.4481      0.4821      0.5293      0.5744      0.6114      0.6291      0.5731      0.5070      0.4506      0.4147    
   6   0.4492      0.4840      0.5335      0.5853      0.6416      0.7037      0.6036      0.5184      0.4554      0.4175    
   7   0.4483      0.4823      0.5294      0.5744      0.6115      0.6293      0.5736      0.5077      0.4514      0.4155    
   8   0.4461      0.4786      0.5218      0.5585      0.5797      0.5783      0.5418      0.4916      0.4435      0.4108    
   9   0.4437      0.4749      0.5151      0.5462      0.5592      0.5511      0.5212      0.4792      0.4363      0.4061    
  10   0.4423      0.4728      0.5114      0.5399      0.5496      0.5395      0.5116      0.4727      0.4323      0.4033    

 DRAWDOWN WILL BE SAVED ON UNIT   52 AT END OF TIME STEP    1, STRESS PERIOD    2
1
  VOLUMETRIC BUDGET FOR ENTIRE MODEL AT END OF TIME STEP    1, STRESS PERIOD   2
  ------------------------------------------------------------------------------

     CUMULATIVE VOLUMES      L**3       RATES FOR THIS TIME STEP      L**3/T
     ------------------                 ------------------------

           IN:                                      IN:
           ---                                      ---
             STORAGE =       1.2088E-03               STORAGE =       1.2088E-03
       CONSTANT HEAD =         181.9051         CONSTANT HEAD =         181.9047
               WELLS =           0.0000                 WELLS =           0.0000

            TOTAL IN =         181.9063              TOTAL IN =         181.9059

          OUT:                                     OUT:
          ----                                     ----
             STORAGE =         161.9049               STORAGE =         161.9049
       CONSTANT HEAD =       9.8165E-04         CONSTANT HEAD =           0.0000
               WELLS =          20.0000                 WELLS =          20.0000

           TOTAL OUT =         181.9059             TOTAL OUT =         181.9049

            IN - OUT =       3.9673E-04              IN - OUT =       9.9182E-04

 PERCENT DISCREPANCY =           0.00     PERCENT DISCREPANCY =           0.00






         TIME SUMMARY AT END OF TIME STEP    1 IN STRESS PERIOD    2
                    SECONDS     MINUTES      HOURS       DAYS        YEARS
                    -----------------------------------------------------------
   TIME STEP LENGTH  86400.      1440.0      24.000      1.0000     2.73785E-03
 STRESS PERIOD TIME  86400.      1440.0      24.000      1.0000     2.73785E-03
         TOTAL TIME 1.72800E+05  2880.0      48.000      2.0000     5.47570E-03
1
1
                            STRESS PERIOD NO.    3, LENGTH =   1.000000    
                            -----------------------------------------------

                              NUMBER OF TIME STEPS =     1

                               MULTIPLIER FOR DELT =     1.000

                            INITIAL TIME STEP SIZE =   1.000000    

 WELL NO.  LAYER   ROW   COL   STRESS RATE         
 --------------------------------------------------
      1      4      6      6      -30.00    

      1 WELL 

 CHD NO.   LAYER   ROW   COL    START HEAD        END HEAD         
 ------------------------------------------------------------------
      1      2      1      1       48.00           48.00    
      2      2      1     10       48.00           48.00    
      3      2      2      1       48.00           48.00    
      4      2      2     10       48.00           48.00    
      5      2      3      1       48.00           48.00    
      6      2      3     10       48.00           48.00    
      7      2      4      1       48.00           48.00    
      8      2      4     10       48.00           48.00    
      9      2      5      1       48.00           48.00    
     10      2      5     10       48.00           48.00    
     11      2      6      1       48.00           48.00    
     12      2      6     10       48.00           48.00    
     13      2      7      1       48.00           48.00    
     14      2      7     10       48.00           48.00    
     15      2      8      1       48.00           48.00    
     16      2      8     10       48.00           48.00    
     17      2      9      1       48.00           48.00    
     18      2      9     10       48.00           48.00    
     19      2     10      1       48.00           48.00    
     20      2     10     10       48.00           48.00    


     20 TIME-VARIANT SPECIFIED-HEAD CELLS
 
 SOLVING FOR HEAD 

 OUTPUT CONTROL FOR STRESS PERIOD    3   TIME STEP    1
    PRINT HEAD FOR ALL LAYERS
    PRINT BUDGET
    PRINT DRAWDOWN FOR ALL LAYERS
    SAVE HEAD FOR ALL LAYERS
    SAVE BUDGET
    SAVE DRAWDOWN FOR ALL LAYERS
 UBDSV1 SAVING "         STORAGE" ON UNIT  53 AT TIME STEP  1, STRESS PERIOD   3
 UBDSV2 SAVING "   CONSTANT HEAD" ON UNIT  53 AT TIME STEP  1, STRESS PERIOD   3
 UBDSV1 SAVING "FLOW RIGHT FACE " ON UNIT  53 AT TIME STEP  1, STRESS PERIOD   3
 UBDSV1 SAVING "FLOW FRONT FACE " ON UNIT  53 AT TIME STEP  1, STRESS PERIOD   3
 UBDSV1 SAVING "FLOW LOWER FACE " ON UNIT  53 AT TIME STEP  1, STRESS PERIOD   3
 UBDSV4 SAVING "           WELLS" ON UNIT  53 AT TIME STEP  1, STRESS PERIOD   3
1
              HEAD IN LAYER   1 AT END OF TIME STEP   1 IN STRESS PERIOD    3
  ---------------------------------------------------------------------------

            1           2           3           4           5           6           7           8           9          10
 ........................................................................................................................
   1    48.00       47.42       47.30       47.26     -1.0000E+30 -1.0000E+30 -1.0000E+30 -1.0000E+30   47.47       48.00    
   2    48.00       47.42       47.30       47.26       47.27     -1.0000E+30 -1.0000E+30 -1.0000E+30   47.47       48.00    
   3    48.00       47.42       47.30       47.26     -1.0000E+30 -1.0000E+30 -1.0000E+30 -1.0000E+30   47.47       48.00    
   4    48.00       47.42       47.30       47.26     -1.0000E+30 -1.0000E+30 -1.0000E+30 -1.0000E+30   47.47       48.00    
   5    48.00       47.42       47.29       47.26     -1.0000E+30 -1.0000E+30 -1.0000E+30 -1.0000E+30   47.46       48.00    
   6    48.00       47.42       47.29       47.25     -1.0000E+30 -1.0000E+30 -1.0000E+30 -1.0000E+30   47.46       48.00    
   7    48.00       47.42       47.29       47.26     -1.0000E+30 -1.0000E+30 -1.0000E+30 -1.0000E+30   47.46       48.00    
   8    48.00       47.42       47.30       47.26     -1.0000E+30 -1.0000E+30 -1.0000E+30 -1.0000E+30   47.47       48.00    
   9    48.00       47.42       47.30       47.26     -1.0000E+30 -1.0000E+30 -1.0000E+30 -1.0000E+30   47.47       48.00    
  10    48.00       47.42       47.30       47.27     -1.0000E+30 -1.0000E+30 -1.0000E+30 -1.0000E+30   47.47       48.00    
1
              HEAD IN LAYER   2 AT END OF TIME STEP   1 IN STRESS PERIOD    3
  ---------------------------------------------------------------------------

            1           2           3           4           5           6           7           8           9          10
 ........................................................................................................................
   1    48.00       47.67       47.50       47.45       47.49       47.55       47.60       47.66       47.74       48.00    
   2    48.00       47.67       47.50       47.44       47.46       47.54       47.60       47.66       47.74       48.00    
   3    48.00       47.66       47.50       47.44       47.48       47.53       47.59       47.66       47.73       48.00    
   4    48.00       47.66       47.50       47.44       47.48       47.52       47.58       47.65       47.73       48.00    
   5    48.00       47.66       47.49       47.43       47.47       47.50       47.56       47.64       47.72       48.00    
   6    48.00       47.66       47.49       47.43       47.46       47.49       47.55       47.63       47.72       48.00    
   7    48.00       47.66       47.49       47.43       47.47       47.50       47.56       47.64       47.72       48.00    
   8    48.00       47.66       47.50       47.44       47.48       47.52       47.58       47.65       47.73       48.00    
   9    48.00       47.67       47.50       47.45       47.49       47.54       47.59       47.65       47.73       48.00    
  10    48.00       47.67       47.50       47.45       47.50       47.55       47.60       47.66       47.73       48.00    
1
              HEAD IN LAYER   3 AT END OF TIME STEP   1 IN STRESS PERIOD    3
  ---------------------------------------------------------------------------

            1           2           3           4           5           6           7           8           9          10
 ........................................................................................................................
   1    47.76       47.66       47.58       47.53       47.54       47.56       47.60       47.65       47.72       47.79    
   2    47.76       47.66       47.57       47.53       47.53       47.55       47.60       47.65       47.71       47.79    
   3    47.76       47.65       47.57       47.52       47.52       47.54       47.58       47.64       47.70       47.79    
   4    47.75       47.65       47.56       47.51       47.49       47.50       47.56       47.62       47.69       47.78    
   5    47.75       47.64       47.55       47.49       47.46       47.44       47.52       47.60       47.68       47.77    
   6    47.75       47.64       47.54       47.48       47.42       47.35       47.48       47.59       47.68       47.77    
   7    47.75       47.64       47.55       47.49       47.46       47.44       47.52       47.60       47.68       47.77    
   8    47.75       47.65       47.56       47.51       47.49       47.50       47.55       47.62       47.69       47.78    
   9    47.75       47.65       47.57       47.52       47.52       47.54       47.58       47.63       47.70       47.78    
  10    47.76       47.65       47.57       47.53       47.53       47.55       47.59       47.64       47.70       47.79    
1
              HEAD IN LAYER   4 AT END OF TIME STEP   1 IN STRESS PERIOD    3
  ---------------------------------------------------------------------------

            1           2           3           4           5           6           7           8           9          10
 ........................................................................................................................
   1    47.68       47.64       47.59       47.56       47.55       47.57       47.60       47.64       47.69       47.72    
   2    47.68       47.64       47.59       47.55       47.55       47.56       47.59       47.64       47.68       47.72    
   3    47.68       47.63       47.58       47.54       47.53       47.54       47.57       47.62       47.67       47.71    
   4    47.67       47.63       47.57       47.52       47.49       47.49       47.54       47.60       47.66       47.70    
   5    47.67       47.62       47.56       47.49       47.43       47.35       47.47       47.57       47.65       47.70    
   6    47.67       47.62       47.55       47.47       47.33       46.84       47.37       47.55       47.64       47.69    
   7    47.67       47.62       47.56       47.49       47.43       47.35       47.47       47.57       47.64       47.69    
   8    47.67       47.62       47.57       47.52       47.49       47.48       47.53       47.60       47.66       47.70    
   9    47.67       47.63       47.58       47.54       47.52       47.53       47.57       47.61       47.67       47.71    
  10    47.68       47.63       47.58       47.55       47.54       47.55       47.58       47.62       47.67       47.71    
1
              HEAD IN LAYER   5 AT END OF TIME STEP   1 IN STRESS PERIOD    3
  ---------------------------------------------------------------------------

            1           2           3           4           5           6           7           8           9          10
 ........................................................................................................................
   1    47.65       47.63       47.59       47.57       47.56       47.57       47.60       47.63       47.67       47.69    
   2    47.65       47.63       47.59       47.56       47.55       47.56       47.59       47.63       47.66       47.69    
   3    47.65       47.62       47.58       47.55       47.53       47.54       47.57       47.61       47.65       47.68    
   4    47.64       47.61       47.57       47.53       47.50       47.50       47.54       47.59       47.64       47.67    
   5    47.64       47.61       47.56       47.50       47.45       47.42       47.48       47.56       47.63       47.66    
   6    47.64       47.60       47.55       47.49       47.40       47.30       47.44       47.55       47.62       47.66    
   7    47.64       47.60       47.56       47.50       47.45       47.41       47.48       47.56       47.62       47.66    
   8    47.64       47.61       47.57       47.53       47.50       47.49       47.53       47.59       47.64       47.67    
   9    47.64       47.62       47.58       47.54       47.53       47.53       47.56       47.60       47.65       47.67    
  10    47.65       47.62       47.58       47.55       47.54       47.55       47.58       47.61       47.65       47.68    

 HEAD WILL BE SAVED ON UNIT   51 AT END OF TIME STEP    1, STRESS PERIOD    3
1
          DRAWDOWN IN LAYER   1 AT END OF TIME STEP   1 IN STRESS PERIOD    3
  ---------------------------------------------------------------------------

            1           2           3           4           5           6           7           8           9          10
 ........................................................................................................................
   1    0.000      0.5751      0.7004      0.7372     -1.0000E+30 -1.0000E+30 -1.0000E+30 -1.0000E+30  0.5279       0.000    
   2    0.000      0.5756      0.7017      0.7412      0.7283     -1.0000E+30 -1.0000E+30 -1.0000E+30  0.5289       0.000    
   3    0.000      0.5761      0.7023      0.7401     -1.0000E+30 -1.0000E+30 -1.0000E+30 -1.0000E+30  0.5306       0.000    
   4    0.000      0.5769      0.7037      0.7417     -1.0000E+30 -1.0000E+30 -1.0000E+30 -1.0000E+30  0.5329       0.000    
   5    0.000      0.5778      0.7055      0.7449     -1.0000E+30 -1.0000E+30 -1.0000E+30 -1.0000E+30  0.5351       0.000    
   6    0.000      0.5781      0.7062      0.7467     -1.0000E+30 -1.0000E+30 -1.0000E+30 -1.0000E+30  0.5362       0.000    
   7    0.000      0.5776      0.7051      0.7441     -1.0000E+30 -1.0000E+30 -1.0000E+30 -1.0000E+30  0.5352       0.000    
   8    0.000      0.5766      0.7028      0.7396     -1.0000E+30 -1.0000E+30 -1.0000E+30 -1.0000E+30  0.5331       0.000    
   9    0.000      0.5757      0.7006      0.7357     -1.0000E+30 -1.0000E+30 -1.0000E+30 -1.0000E+30  0.5311       0.000    
  10    0.000      0.5751      0.6993      0.7335     -1.0000E+30 -1.0000E+30 -1.0000E+30 -1.0000E+30  0.5300       0.000    
1
          DRAWDOWN IN LAYER   2 AT END OF TIME STEP   1 IN STRESS PERIOD    3
  ---------------------------------------------------------------------------

            1           2           3           4           5           6           7           8           9          10
 ........................................................................................................................
   1    0.000      0.3330      0.4973      0.5517      0.5088      0.4550      0.3981      0.3351      0.2629       0.000    
   2    0.000      0.3339      0.4996      0.5587      0.5381      0.4644      0.4034      0.3387      0.2647       0.000    
   3    0.000      0.3351      0.5012      0.5578      0.5180      0.4679      0.4110      0.3449      0.2679       0.000    
   4    0.000      0.3367      0.5041      0.5615      0.5218      0.4794      0.4231      0.3538      0.2722       0.000    
   5    0.000      0.3383      0.5076      0.5679      0.5335      0.4972      0.4377      0.3630      0.2764       0.000    
   6    0.000      0.3390      0.5092      0.5715      0.5417      0.5113      0.4469      0.3680      0.2785       0.000    
   7    0.000      0.3382      0.5071      0.5669      0.5322      0.4964      0.4376      0.3634      0.2768       0.000    
   8    0.000      0.3364      0.5029      0.5588      0.5175      0.4771      0.4228      0.3546      0.2730       0.000    
   9    0.000      0.3346      0.4990      0.5516      0.5055      0.4625      0.4106      0.3466      0.2694       0.000    
  10    0.000      0.3336      0.4967      0.5476      0.4992      0.4550      0.4040      0.3421      0.2672       0.000    
1
          DRAWDOWN IN LAYER   3 AT END OF TIME STEP   1 IN STRESS PERIOD    3
  ---------------------------------------------------------------------------

            1           2           3           4           5           6           7           8           9          10
 ........................................................................................................................
   1   0.2405      0.3408      0.4246      0.4661      0.4642      0.4379      0.3972      0.3462      0.2849      0.2062    
   2   0.2419      0.3428      0.4279      0.4718      0.4739      0.4466      0.4045      0.3515      0.2886      0.2088    
   3   0.2443      0.3464      0.4335      0.4800      0.4844      0.4626      0.4192      0.3623      0.2956      0.2135    
   4   0.2472      0.3510      0.4415      0.4940      0.5073      0.4951      0.4448      0.3787      0.3053      0.2196    
   5   0.2499      0.3554      0.4503      0.5122      0.5443      0.5570      0.4832      0.3984      0.3153      0.2254    
   6   0.2511      0.3576      0.4551      0.5249      0.5813      0.6538      0.5208      0.4120      0.3208      0.2283    
   7   0.2504      0.3559      0.4505      0.5123      0.5444      0.5574      0.4841      0.3996      0.3165      0.2265    
   8   0.2483      0.3520      0.4422      0.4941      0.5072      0.4960      0.4469      0.3813      0.3079      0.2220    
   9   0.2461      0.3481      0.4347      0.4802      0.4836      0.4643      0.4231      0.3670      0.3002      0.2176    
  10   0.2448      0.3459      0.4306      0.4730      0.4726      0.4508      0.4120      0.3597      0.2958      0.2149    
1
          DRAWDOWN IN LAYER   4 AT END OF TIME STEP   1 IN STRESS PERIOD    3
  ---------------------------------------------------------------------------

            1           2           3           4           5           6           7           8           9          10
 ........................................................................................................................
   1   0.3164      0.3603      0.4086      0.4392      0.4450      0.4297      0.3988      0.3582      0.3142      0.2772    
   2   0.3184      0.3630      0.4127      0.4455      0.4539      0.4397      0.4076      0.3648      0.3189      0.2808    
   3   0.3219      0.3679      0.4205      0.4579      0.4722      0.4628      0.4271      0.3785      0.3281      0.2876    
   4   0.3263      0.3742      0.4316      0.4780      0.5073      0.5144      0.4633      0.4001      0.3409      0.2964    
   5   0.3302      0.3803      0.4438      0.5052      0.5712      0.6521      0.5280      0.4284      0.3545      0.3047    
   6   0.3320      0.3834      0.4510      0.5283      0.6679       1.158      0.6251      0.4522      0.3626      0.3090    
   7   0.3310      0.3812      0.4446      0.5060      0.5722      0.6534      0.5295      0.4301      0.3562      0.3064    
   8   0.3281      0.3761      0.4335      0.4800      0.5095      0.5173      0.4669      0.4039      0.3447      0.3000    
   9   0.3250      0.3711      0.4240      0.4616      0.4764      0.4684      0.4337      0.3853      0.3346      0.2937    
  10   0.3231      0.3682      0.4187      0.4525      0.4622      0.4504      0.4193      0.3760      0.3290      0.2899    
1
          DRAWDOWN IN LAYER   5 AT END OF TIME STEP   1 IN STRESS PERIOD    3
  ---------------------------------------------------------------------------

            1           2           3           4           5           6           7           8           9          10
 ........................................................................................................................
   1   0.3457      0.3717      0.4052      0.4297      0.4370      0.4262      0.4004      0.3659      0.3309      0.3066    
   2   0.3479      0.3747      0.4097      0.4365      0.4462      0.4366      0.4098      0.3731      0.3362      0.3107    
   3   0.3520      0.3803      0.4184      0.4502      0.4660      0.4602      0.4301      0.3878      0.3463      0.3185    
   4   0.3570      0.3875      0.4306      0.4713      0.5000      0.5048      0.4648      0.4101      0.3602      0.3284    
   5   0.3615      0.3942      0.4433      0.4969      0.5497      0.5839      0.5151      0.4366      0.3744      0.3376    
   6   0.3636      0.3975      0.4502      0.5141      0.5961      0.6971      0.5619      0.4544      0.3822      0.3423    
   7   0.3625      0.3953      0.4445      0.4982      0.5512      0.5856      0.5171      0.4387      0.3764      0.3396    
   8   0.3593      0.3898      0.4332      0.4743      0.5034      0.5088      0.4693      0.4146      0.3646      0.3327    
   9   0.3558      0.3844      0.4231      0.4557      0.4724      0.4678      0.4382      0.3957      0.3538      0.3256    
  10   0.3537      0.3812      0.4175      0.4462      0.4580      0.4501      0.4236      0.3860      0.3478      0.3214    

 DRAWDOWN WILL BE SAVED ON UNIT   52 AT END OF TIME STEP    1, STRESS PERIOD    3
1
  VOLUMETRIC BUDGET FOR ENTIRE MODEL AT END OF TIME STEP    1, STRESS PERIOD   3
  ------------------------------------------------------------------------------

     CUMULATIVE VOLUMES      L**3       RATES FOR THIS TIME STEP      L**3/T
     ------------------                 ------------------------

           IN:                                      IN:
           ---                                      ---
             STORAGE =       1.5798E-02               STORAGE =       1.4589E-02
       CONSTANT HEAD =         326.3051         CONSTANT HEAD =         144.4001
               WELLS =           0.0000                 WELLS =           0.0000

            TOTAL IN =         326.3210              TOTAL IN =         144.4147

          OUT:                                     OUT:
          ----                                     ----
             STORAGE =         276.3193               STORAGE =         114.4144
       CONSTANT HEAD =       9.8165E-04         CONSTANT HEAD =           0.0000
               WELLS =          50.0000                 WELLS =          30.0000

           TOTAL OUT =         326.3203             TOTAL OUT =         144.4144

            IN - OUT =       7.0190E-04              IN - OUT =       3.0518E-04

 PERCENT DISCREPANCY =           0.00     PERCENT DISCREPANCY =           0.00






         TIME SUMMARY AT END OF TIME STEP    1 IN STRESS PERIOD    3
                    SECONDS     MINUTES      HOURS       DAYS        YEARS
                    -----------------------------------------------------------
   TIME STEP LENGTH  86400.      1440.0      24.000      1.0000     2.73785E-03
 STRESS PERIOD TIME  86400.      1440.0      24.000      1.0000     2.73785E-03
         TOTAL TIME 2.59200E+05  4320.0      72.000      3.0000     8.21355E-03
1
1
                            STRESS PERIOD NO.    4, LENGTH =   1.000000    
                            -----------------------------------------------

                              NUMBER OF TIME STEPS =     1

                               MULTIPLIER FOR DELT =     1.000

                            INITIAL TIME STEP SIZE =   1.000000    

 WELL NO.  LAYER   ROW   COL   STRESS RATE         
 --------------------------------------------------
      1      4      6      6      -20.00    

      1 WELL 

 CHD NO.   LAYER   ROW   COL    START HEAD        END HEAD         
 ------------------------------------------------------------------
      1      2      1      1       48.00           48.00    
      2      2      1     10       48.00           48.00    
      3      2      2      1       48.00           48.00    
      4      2      2     10       48.00           48.00    
      5      2      3      1       48.00           48.00    
      6      2      3     10       48.00           48.00    
      7      2      4      1       48.00           48.00    
      8      2      4     10       48.00           48.00    
      9      2      5      1       48.00           48.00    
     10      2      5     10       48.00           48.00    
     11      2      6      1       48.00           48.00    
     12      2      6     10       48.00           48.00    
     13      2      7      1       48.00           48.00    
     14      2      7     10       48.00           48.00    
     15      2      8      1       48.00           48.00    
     16      2      8     10       48.00           48.00    
     17      2      9      1       48.00           48.00    
     18      2      9     10       48.00           48.00    
     19      2     10      1       48.00           48.00    
     20      2     10     10       48.00           48.00    


     20 TIME-VARIANT SPECIFIED-HEAD CELLS
 
 SOLVING FOR HEAD 

 OUTPUT CONTROL FOR STRESS PERIOD    4   TIME STEP    1
    PRINT HEAD FOR ALL LAYERS
    PRINT BUDGET
    PRINT DRAWDOWN FOR ALL LAYERS
    SAVE HEAD FOR ALL LAYERS
    SAVE BUDGET
    SAVE DRAWDOWN FOR ALL LAYERS
 UBDSV1 SAVING "         STORAGE" ON UNIT  53 AT TIME STEP  1, STRESS PERIOD   4
 UBDSV2 SAVING "   CONSTANT HEAD" ON UNIT  53 AT TIME STEP  1, STRESS PERIOD   4
 UBDSV1 SAVING "FLOW RIGHT FACE " ON UNIT  53 AT TIME STEP  1, STRESS PERIOD   4
 UBDSV1 SAVING "FLOW FRONT FACE " ON UNIT  53 AT TIME STEP  1, STRESS PERIOD   4
 UBDSV1 SAVING "FLOW LOWER FACE " ON UNIT  53 AT TIME STEP  1, STRESS PERIOD   4
 UBDSV4 SAVING "           WELLS" ON UNIT  53 AT TIME STEP  1, STRESS PERIOD   4
1
              HEAD IN LAYER   1 AT END OF TIME STEP   1 IN STRESS PERIOD    4
  ---------------------------------------------------------------------------

            1           2           3           4           5           6           7           8           9          10
 ........................................................................................................................
   1    48.00       47.56       47.42       47.38     -1.0000E+30 -1.0000E+30 -1.0000E+30 -1.0000E+30   47.61       48.00    
   2    48.00       47.56       47.42       47.37       47.39     -1.0000E+30 -1.0000E+30 -1.0000E+30   47.61       48.00    
   3    48.00       47.56       47.42       47.38     -1.0000E+30 -1.0000E+30 -1.0000E+30 -1.0000E+30   47.61       48.00    
   4    48.00       47.56       47.42       47.37     -1.0000E+30 -1.0000E+30 -1.0000E+30 -1.0000E+30   47.61       48.00    
   5    48.00       47.56       47.41       47.37     -1.0000E+30 -1.0000E+30 -1.0000E+30 -1.0000E+30   47.61       48.00    
   6    48.00       47.55       47.41       47.37     -1.0000E+30 -1.0000E+30 -1.0000E+30 -1.0000E+30   47.61       48.00    
   7    48.00       47.56       47.42       47.37     -1.0000E+30 -1.0000E+30 -1.0000E+30 -1.0000E+30   47.61       48.00    
   8    48.00       47.56       47.42       47.38     -1.0000E+30 -1.0000E+30 -1.0000E+30 -1.0000E+30   47.61       48.00    
   9    48.00       47.56       47.42       47.38     -1.0000E+30 -1.0000E+30 -1.0000E+30 -1.0000E+30   47.61       48.00    
  10    48.00       47.56       47.42       47.38     -1.0000E+30 -1.0000E+30 -1.0000E+30 -1.0000E+30   47.61       48.00    
1
              HEAD IN LAYER   2 AT END OF TIME STEP   1 IN STRESS PERIOD    4
  ---------------------------------------------------------------------------

            1           2           3           4           5           6           7           8           9          10
 ........................................................................................................................
   1    48.00       47.74       47.60       47.55       47.59       47.64       47.69       47.74       47.80       48.00    
   2    48.00       47.74       47.59       47.54       47.56       47.63       47.68       47.74       47.80       48.00    
   3    48.00       47.73       47.59       47.54       47.58       47.63       47.68       47.73       47.80       48.00    
   4    48.00       47.73       47.59       47.54       47.58       47.62       47.67       47.73       47.80       48.00    
   5    48.00       47.73       47.59       47.54       47.57       47.61       47.66       47.72       47.79       48.00    
   6    48.00       47.73       47.59       47.54       47.57       47.60       47.66       47.72       47.79       48.00    
   7    48.00       47.73       47.59       47.54       47.58       47.61       47.66       47.72       47.79       48.00    
   8    48.00       47.73       47.59       47.55       47.59       47.63       47.67       47.73       47.80       48.00    
   9    48.00       47.74       47.60       47.55       47.60       47.64       47.68       47.73       47.80       48.00    
  10    48.00       47.74       47.60       47.55       47.60       47.64       47.69       47.74       47.80       48.00    
1
              HEAD IN LAYER   3 AT END OF TIME STEP   1 IN STRESS PERIOD    4
  ---------------------------------------------------------------------------

            1           2           3           4           5           6           7           8           9          10
 ........................................................................................................................
   1    47.81       47.73       47.66       47.63       47.63       47.65       47.69       47.73       47.78       47.84    
   2    47.81       47.73       47.66       47.62       47.62       47.65       47.68       47.73       47.78       47.84    
   3    47.81       47.72       47.65       47.62       47.62       47.64       47.67       47.72       47.77       47.84    
   4    47.80       47.72       47.65       47.61       47.60       47.62       47.66       47.71       47.77       47.83    
   5    47.80       47.72       47.64       47.59       47.58       47.57       47.63       47.70       47.76       47.83    
   6    47.80       47.72       47.64       47.59       47.55       47.51       47.61       47.69       47.76       47.83    
   7    47.80       47.72       47.64       47.60       47.58       47.57       47.63       47.70       47.76       47.83    
   8    47.80       47.72       47.65       47.61       47.60       47.62       47.66       47.71       47.77       47.83    
   9    47.80       47.72       47.65       47.62       47.62       47.64       47.67       47.72       47.77       47.83    
  10    47.81       47.73       47.66       47.62       47.63       47.65       47.68       47.72       47.77       47.84    
1
              HEAD IN LAYER   4 AT END OF TIME STEP   1 IN STRESS PERIOD    4
  ---------------------------------------------------------------------------

            1           2           3           4           5           6           7           8           9          10
 ........................................................................................................................
   1    47.75       47.71       47.67       47.65       47.65       47.66       47.69       47.72       47.76       47.79    
   2    47.75       47.71       47.67       47.65       47.64       47.65       47.68       47.72       47.75       47.78    
   3    47.74       47.71       47.67       47.64       47.63       47.64       47.67       47.71       47.75       47.78    
   4    47.74       47.70       47.66       47.62       47.61       47.60       47.64       47.69       47.74       47.77    
   5    47.74       47.70       47.65       47.61       47.56       47.51       47.60       47.67       47.73       47.77    
   6    47.74       47.70       47.65       47.59       47.50       47.17       47.54       47.66       47.72       47.76    
   7    47.74       47.70       47.65       47.61       47.56       47.51       47.60       47.67       47.73       47.77    
   8    47.74       47.70       47.66       47.62       47.60       47.60       47.64       47.69       47.74       47.77    
   9    47.74       47.71       47.66       47.64       47.63       47.64       47.67       47.70       47.74       47.78    
  10    47.74       47.71       47.67       47.64       47.64       47.65       47.68       47.71       47.75       47.78    
1
              HEAD IN LAYER   5 AT END OF TIME STEP   1 IN STRESS PERIOD    4
  ---------------------------------------------------------------------------

            1           2           3           4           5           6           7           8           9          10
 ........................................................................................................................
   1    47.73       47.70       47.68       47.66       47.65       47.67       47.69       47.72       47.74       47.76    
   2    47.72       47.70       47.67       47.65       47.65       47.66       47.68       47.71       47.74       47.76    
   3    47.72       47.70       47.67       47.65       47.64       47.64       47.67       47.70       47.73       47.75    
   4    47.72       47.69       47.66       47.63       47.61       47.61       47.64       47.69       47.72       47.75    
   5    47.71       47.69       47.65       47.61       47.58       47.56       47.61       47.67       47.71       47.74    
   6    47.71       47.69       47.65       47.60       47.55       47.48       47.58       47.66       47.71       47.74    
   7    47.71       47.69       47.65       47.61       47.58       47.56       47.61       47.67       47.71       47.74    
   8    47.72       47.69       47.66       47.63       47.61       47.61       47.64       47.68       47.72       47.75    
   9    47.72       47.70       47.67       47.64       47.63       47.64       47.66       47.70       47.73       47.75    
  10    47.72       47.70       47.67       47.65       47.64       47.65       47.67       47.70       47.73       47.75    

 HEAD WILL BE SAVED ON UNIT   51 AT END OF TIME STEP    1, STRESS PERIOD    4
1
          DRAWDOWN IN LAYER   1 AT END OF TIME STEP   1 IN STRESS PERIOD    4
  ---------------------------------------------------------------------------

            1           2           3           4           5           6           7           8           9          10
 ........................................................................................................................
   1    0.000      0.4415      0.5795      0.6217     -1.0000E+30 -1.0000E+30 -1.0000E+30 -1.0000E+30  0.3854       0.000    
   2    0.000      0.4421      0.5810      0.6261      0.6112     -1.0000E+30 -1.0000E+30 -1.0000E+30  0.3865       0.000    
   3    0.000      0.4428      0.5818      0.6250     -1.0000E+30 -1.0000E+30 -1.0000E+30 -1.0000E+30  0.3884       0.000    
   4    0.000      0.4437      0.5834      0.6267     -1.0000E+30 -1.0000E+30 -1.0000E+30 -1.0000E+30  0.3910       0.000    
   5    0.000      0.4447      0.5854      0.6302     -1.0000E+30 -1.0000E+30 -1.0000E+30 -1.0000E+30  0.3934       0.000    
   6    0.000      0.4451      0.5863      0.6321     -1.0000E+30 -1.0000E+30 -1.0000E+30 -1.0000E+30  0.3946       0.000    
   7    0.000      0.4445      0.5848      0.6292     -1.0000E+30 -1.0000E+30 -1.0000E+30 -1.0000E+30  0.3935       0.000    
   8    0.000      0.4433      0.5821      0.6241     -1.0000E+30 -1.0000E+30 -1.0000E+30 -1.0000E+30  0.3912       0.000    
   9    0.000      0.4421      0.5796      0.6195     -1.0000E+30 -1.0000E+30 -1.0000E+30 -1.0000E+30  0.3890       0.000    
  10    0.000      0.4414      0.5781      0.6170     -1.0000E+30 -1.0000E+30 -1.0000E+30 -1.0000E+30  0.3877       0.000    
1
          DRAWDOWN IN LAYER   2 AT END OF TIME STEP   1 IN STRESS PERIOD    4
  ---------------------------------------------------------------------------

            1           2           3           4           5           6           7           8           9          10
 ........................................................................................................................
   1    0.000      0.2642      0.4048      0.4523      0.4121      0.3632      0.3132      0.2592      0.1979       0.000    
   2    0.000      0.2650      0.4067      0.4583      0.4377      0.3706      0.3169      0.2617      0.1992       0.000    
   3    0.000      0.2658      0.4076      0.4563      0.4174      0.3712      0.3215      0.2658      0.2015       0.000    
   4    0.000      0.2670      0.4096      0.4582      0.4179      0.3779      0.3293      0.2717      0.2046       0.000    
   5    0.000      0.2681      0.4120      0.4624      0.4250      0.3893      0.3388      0.2779      0.2076       0.000    
   6    0.000      0.2686      0.4130      0.4647      0.4301      0.3984      0.3448      0.2811      0.2091       0.000    
   7    0.000      0.2678      0.4112      0.4611      0.4233      0.3880      0.3382      0.2778      0.2077       0.000    
   8    0.000      0.2664      0.4079      0.4549      0.4129      0.3746      0.3279      0.2716      0.2049       0.000    
   9    0.000      0.2649      0.4047      0.4493      0.4043      0.3644      0.3194      0.2660      0.2022       0.000    
  10    0.000      0.2640      0.4028      0.4462      0.3998      0.3591      0.3148      0.2628      0.2006       0.000    
1
          DRAWDOWN IN LAYER   3 AT END OF TIME STEP   1 IN STRESS PERIOD    4
  ---------------------------------------------------------------------------

            1           2           3           4           5           6           7           8           9          10
 ........................................................................................................................
   1   0.1916      0.2720      0.3411      0.3748      0.3711      0.3468      0.3116      0.2689      0.2193      0.1589    
   2   0.1926      0.2734      0.3434      0.3789      0.3782      0.3528      0.3165      0.2725      0.2218      0.1606    
   3   0.1942      0.2758      0.3471      0.3841      0.3843      0.3632      0.3263      0.2798      0.2267      0.1639    
   4   0.1962      0.2789      0.3524      0.3932      0.3991      0.3846      0.3434      0.2908      0.2333      0.1681    
   5   0.1979      0.2819      0.3583      0.4053      0.4236      0.4259      0.3690      0.3041      0.2400      0.1720    
   6   0.1987      0.2833      0.3614      0.4136      0.4482      0.4905      0.3941      0.3131      0.2437      0.1739    
   7   0.1981      0.2819      0.3581      0.4048      0.4231      0.4257      0.3692      0.3046      0.2407      0.1727    
   8   0.1966      0.2791      0.3521      0.3922      0.3977      0.3841      0.3439      0.2920      0.2348      0.1695    
   9   0.1951      0.2763      0.3468      0.3824      0.3814      0.3624      0.3276      0.2822      0.2294      0.1664    
  10   0.1941      0.2746      0.3438      0.3774      0.3738      0.3532      0.3200      0.2771      0.2263      0.1646    
1
          DRAWDOWN IN LAYER   4 AT END OF TIME STEP   1 IN STRESS PERIOD    4
  ---------------------------------------------------------------------------

            1           2           3           4           5           6           7           8           9          10
 ........................................................................................................................
   1   0.2518      0.2870      0.3260      0.3500      0.3530      0.3386      0.3121      0.2784      0.2429      0.2139    
   2   0.2531      0.2888      0.3288      0.3543      0.3591      0.3454      0.3180      0.2829      0.2462      0.2164    
   3   0.2556      0.2921      0.3340      0.3626      0.3713      0.3609      0.3312      0.2922      0.2525      0.2211    
   4   0.2585      0.2964      0.3415      0.3760      0.3947      0.3954      0.3555      0.3068      0.2612      0.2271    
   5   0.2611      0.3005      0.3496      0.3942      0.4375      0.4876      0.3989      0.3259      0.2704      0.2328    
   6   0.2623      0.3025      0.3544      0.4096      0.5020      0.8254      0.4639      0.3418      0.2758      0.2357    
   7   0.2615      0.3009      0.3499      0.3944      0.4377      0.4881      0.3997      0.3268      0.2714      0.2339    
   8   0.2594      0.2972      0.3421      0.3765      0.3953      0.3966      0.3573      0.3090      0.2635      0.2294    
   9   0.2572      0.2937      0.3354      0.3639      0.3727      0.3634      0.3347      0.2962      0.2565      0.2250    
  10   0.2558      0.2916      0.3318      0.3576      0.3629      0.3511      0.3249      0.2898      0.2526      0.2224    
1
          DRAWDOWN IN LAYER   5 AT END OF TIME STEP   1 IN STRESS PERIOD    4
  ---------------------------------------------------------------------------

            1           2           3           4           5           6           7           8           9          10
 ........................................................................................................................
   1   0.2748      0.2956      0.3221      0.3410      0.3454      0.3350      0.3129      0.2844      0.2562      0.2368    
   2   0.2764      0.2976      0.3252      0.3456      0.3516      0.3420      0.3192      0.2893      0.2598      0.2397    
   3   0.2792      0.3014      0.3311      0.3548      0.3649      0.3580      0.3330      0.2993      0.2667      0.2450    
   4   0.2825      0.3063      0.3393      0.3691      0.3878      0.3880      0.3565      0.3144      0.2761      0.2518    
   5   0.2855      0.3108      0.3479      0.3862      0.4212      0.4411      0.3903      0.3324      0.2858      0.2581    
   6   0.2869      0.3130      0.3525      0.3977      0.4522      0.5168      0.4216      0.3443      0.2910      0.2612    
   7   0.2860      0.3113      0.3484      0.3868      0.4218      0.4419      0.3914      0.3335      0.2870      0.2594    
   8   0.2837      0.3074      0.3406      0.3704      0.3894      0.3900      0.3589      0.3171      0.2789      0.2545    
   9   0.2812      0.3036      0.3336      0.3576      0.3682      0.3621      0.3377      0.3042      0.2714      0.2496    
  10   0.2797      0.3013      0.3296      0.3510      0.3583      0.3501      0.3278      0.2975      0.2672      0.2466    

 DRAWDOWN WILL BE SAVED ON UNIT   52 AT END OF TIME STEP    1, STRESS PERIOD    4
1
  VOLUMETRIC BUDGET FOR ENTIRE MODEL AT END OF TIME STEP    1, STRESS PERIOD   4
  ------------------------------------------------------------------------------

     CUMULATIVE VOLUMES      L**3       RATES FOR THIS TIME STEP      L**3/T
     ------------------                 ------------------------

           IN:                                      IN:
           ---                                      ---
             STORAGE =       1.5798E-02               STORAGE =           0.0000
       CONSTANT HEAD =         439.1394         CONSTANT HEAD =         112.8342
               WELLS =           0.0000                 WELLS =           0.0000

            TOTAL IN =         439.1552              TOTAL IN =         112.8342

          OUT:                                     OUT:
          ----                                     ----
             STORAGE =         369.1531               STORAGE =          92.8338
       CONSTANT HEAD =       9.8165E-04         CONSTANT HEAD =           0.0000
               WELLS =          70.0000                 WELLS =          20.0000

           TOTAL OUT =         439.1541             TOTAL OUT =         112.8338

            IN - OUT =       1.1292E-03              IN - OUT =       4.2725E-04

 PERCENT DISCREPANCY =           0.00     PERCENT DISCREPANCY =           0.00






         TIME SUMMARY AT END OF TIME STEP    1 IN STRESS PERIOD    4
                    SECONDS     MINUTES      HOURS       DAYS        YEARS
                    -----------------------------------------------------------
   TIME STEP LENGTH  86400.      1440.0      24.000      1.0000     2.73785E-03
 STRESS PERIOD TIME  86400.      1440.0      24.000      1.0000     2.73785E-03
         TOTAL TIME 3.45600E+05  5760.0      96.000      4.0000     1.09514E-02
1
1
                            STRESS PERIOD NO.    5, LENGTH =   1.000000    
                            -----------------------------------------------

                              NUMBER OF TIME STEPS =     1

                               MULTIPLIER FOR DELT =     1.000

                            INITIAL TIME STEP SIZE =   1.000000    

 WELL NO.  LAYER   ROW   COL   STRESS RATE         
 --------------------------------------------------
      1      4      6      6      -40.00    

      1 WELL 

 CHD NO.   LAYER   ROW   COL    START HEAD        END HEAD         
 ------------------------------------------------------------------
      1      2      1      1       48.00           48.00    
      2      2      1     10       48.00           48.00    
      3      2      2      1       48.00           48.00    
      4      2      2     10       48.00           48.00    
      5      2      3      1       48.00           48.00    
      6      2      3     10       48.00           48.00    
      7      2      4      1       48.00           48.00    
      8      2      4     10       48.00           48.00    
      9      2      5      1       48.00           48.00    
     10      2      5     10       48.00           48.00    
     11      2      6      1       48.00           48.00    
     12      2      6     10       48.00           48.00    
     13      2      7      1       48.00           48.00    
     14      2      7     10       48.00           48.00    
     15      2      8      1       48.00           48.00    
     16      2      8     10       48.00           48.00    
     17      2      9      1       48.00           48.00    
     18      2      9     10       48.00           48.00    
     19      2     10      1       48.00           48.00    
     20      2     10     10       48.00           48.00    


     20 TIME-VARIANT SPECIFIED-HEAD CELLS
 
 SOLVING FOR HEAD 

 OUTPUT CONTROL FOR STRESS PERIOD    5   TIME STEP    1
    PRINT HEAD FOR ALL LAYERS
    PRINT BUDGET
    PRINT DRAWDOWN FOR ALL LAYERS
    SAVE HEAD FOR ALL LAYERS
    SAVE BUDGET
    SAVE DRAWDOWN FOR ALL LAYERS
 UBDSV1 SAVING "         STORAGE" ON UNIT  53 AT TIME STEP  1, STRESS PERIOD   5
 UBDSV2 SAVING "   CONSTANT HEAD" ON UNIT  53 AT TIME STEP  1, STRESS PERIOD   5
 UBDSV1 SAVING "FLOW RIGHT FACE " ON UNIT  53 AT TIME STEP  1, STRESS PERIOD   5
 UBDSV1 SAVING "FLOW FRONT FACE " ON UNIT  53 AT TIME STEP  1, STRESS PERIOD   5
 UBDSV1 SAVING "FLOW LOWER FACE " ON UNIT  53 AT TIME STEP  1, STRESS PERIOD   5
 UBDSV4 SAVING "           WELLS" ON UNIT  53 AT TIME STEP  1, STRESS PERIOD   5
1
              HEAD IN LAYER   1 AT END OF TIME STEP   1 IN STRESS PERIOD    5
  ---------------------------------------------------------------------------

            1           2           3           4           5           6           7           8           9          10
 ........................................................................................................................
   1    48.00       47.65       47.51       47.47     -1.0000E+30 -1.0000E+30 -1.0000E+30 -1.0000E+30   47.71       48.00    
   2    48.00       47.65       47.51       47.46       47.47     -1.0000E+30 -1.0000E+30 -1.0000E+30   47.71       48.00    
   3    48.00       47.65       47.51       47.46     -1.0000E+30 -1.0000E+30 -1.0000E+30 -1.0000E+30   47.70       48.00    
   4    48.00       47.65       47.51       47.46     -1.0000E+30 -1.0000E+30 -1.0000E+30 -1.0000E+30   47.70       48.00    
   5    48.00       47.65       47.50       47.45     -1.0000E+30 -1.0000E+30 -1.0000E+30 -1.0000E+30   47.70       48.00    
   6    48.00       47.65       47.50       47.45     -1.0000E+30 -1.0000E+30 -1.0000E+30 -1.0000E+30   47.69       48.00    
   7    48.00       47.65       47.50       47.45     -1.0000E+30 -1.0000E+30 -1.0000E+30 -1.0000E+30   47.70       48.00    
   8    48.00       47.65       47.51       47.46     -1.0000E+30 -1.0000E+30 -1.0000E+30 -1.0000E+30   47.70       48.00    
   9    48.00       47.65       47.51       47.46     -1.0000E+30 -1.0000E+30 -1.0000E+30 -1.0000E+30   47.70       48.00    
  10    48.00       47.65       47.51       47.47     -1.0000E+30 -1.0000E+30 -1.0000E+30 -1.0000E+30   47.70       48.00    
1
              HEAD IN LAYER   2 AT END OF TIME STEP   1 IN STRESS PERIOD    5
  ---------------------------------------------------------------------------

            1           2           3           4           5           6           7           8           9          10
 ........................................................................................................................
   1    48.00       47.78       47.65       47.60       47.62       47.66       47.70       47.76       47.83       48.00    
   2    48.00       47.78       47.65       47.59       47.60       47.65       47.70       47.75       47.83       48.00    
   3    48.00       47.77       47.64       47.59       47.61       47.64       47.68       47.74       47.82       48.00    
   4    48.00       47.77       47.64       47.58       47.59       47.62       47.67       47.73       47.82       48.00    
   5    48.00       47.77       47.63       47.57       47.57       47.59       47.64       47.72       47.81       48.00    
   6    48.00       47.77       47.63       47.56       47.56       47.57       47.63       47.71       47.81       48.00    
   7    48.00       47.77       47.63       47.57       47.57       47.59       47.64       47.72       47.81       48.00    
   8    48.00       47.77       47.64       47.58       47.59       47.62       47.66       47.73       47.81       48.00    
   9    48.00       47.77       47.64       47.59       47.61       47.64       47.68       47.74       47.82       48.00    
  10    48.00       47.77       47.64       47.59       47.62       47.65       47.69       47.74       47.82       48.00    
1
              HEAD IN LAYER   3 AT END OF TIME STEP   1 IN STRESS PERIOD    5
  ---------------------------------------------------------------------------

            1           2           3           4           5           6           7           8           9          10
 ........................................................................................................................
   1    47.82       47.75       47.69       47.65       47.65       47.66       47.70       47.74       47.79       47.84    
   2    47.82       47.75       47.68       47.64       47.64       47.65       47.69       47.73       47.78       47.84    
   3    47.82       47.74       47.67       47.63       47.62       47.63       47.66       47.71       47.77       47.83    
   4    47.81       47.74       47.66       47.61       47.58       47.58       47.63       47.69       47.76       47.82    
   5    47.81       47.73       47.65       47.58       47.53       47.50       47.58       47.67       47.75       47.82    
   6    47.81       47.73       47.64       47.57       47.48       47.37       47.53       47.65       47.74       47.81    
   7    47.81       47.73       47.65       47.58       47.53       47.50       47.57       47.66       47.74       47.81    
   8    47.81       47.73       47.66       47.61       47.58       47.58       47.62       47.69       47.75       47.82    
   9    47.81       47.74       47.67       47.62       47.61       47.62       47.65       47.71       47.76       47.83    
  10    47.81       47.74       47.67       47.63       47.63       47.64       47.67       47.71       47.77       47.83    
1
              HEAD IN LAYER   4 AT END OF TIME STEP   1 IN STRESS PERIOD    5
  ---------------------------------------------------------------------------

            1           2           3           4           5           6           7           8           9          10
 ........................................................................................................................
   1    47.76       47.73       47.69       47.66       47.66       47.66       47.69       47.72       47.76       47.78    
   2    47.76       47.73       47.69       47.66       47.64       47.65       47.68       47.71       47.75       47.78    
   3    47.75       47.72       47.67       47.64       47.62       47.62       47.65       47.69       47.74       47.77    
   4    47.75       47.71       47.66       47.61       47.57       47.55       47.60       47.66       47.72       47.76    
   5    47.74       47.70       47.64       47.57       47.48       47.36       47.51       47.63       47.70       47.75    
   6    47.74       47.70       47.63       47.54       47.35       46.69       47.38       47.59       47.69       47.74    
   7    47.74       47.70       47.64       47.57       47.48       47.36       47.51       47.62       47.70       47.74    
   8    47.74       47.71       47.65       47.60       47.56       47.54       47.59       47.66       47.71       47.75    
   9    47.75       47.71       47.67       47.63       47.61       47.61       47.64       47.68       47.73       47.76    
  10    47.75       47.72       47.67       47.64       47.63       47.63       47.66       47.69       47.73       47.77    
1
              HEAD IN LAYER   5 AT END OF TIME STEP   1 IN STRESS PERIOD    5
  ---------------------------------------------------------------------------

            1           2           3           4           5           6           7           8           9          10
 ........................................................................................................................
   1    47.74       47.72       47.69       47.67       47.66       47.66       47.68       47.71       47.74       47.76    
   2    47.74       47.71       47.68       47.66       47.65       47.65       47.67       47.70       47.73       47.75    
   3    47.73       47.71       47.67       47.64       47.62       47.62       47.64       47.68       47.72       47.74    
   4    47.72       47.70       47.65       47.61       47.57       47.56       47.60       47.65       47.70       47.73    
   5    47.72       47.69       47.64       47.58       47.50       47.45       47.53       47.62       47.68       47.72    
   6    47.71       47.68       47.63       47.55       47.44       47.30       47.47       47.59       47.67       47.71    
   7    47.71       47.68       47.63       47.57       47.50       47.45       47.52       47.61       47.68       47.71    
   8    47.72       47.69       47.65       47.60       47.56       47.55       47.59       47.64       47.69       47.72    
   9    47.72       47.70       47.66       47.63       47.61       47.60       47.63       47.67       47.71       47.73    
  10    47.72       47.70       47.67       47.64       47.62       47.63       47.65       47.68       47.72       47.74    

 HEAD WILL BE SAVED ON UNIT   51 AT END OF TIME STEP    1, STRESS PERIOD    5
1
          DRAWDOWN IN LAYER   1 AT END OF TIME STEP   1 IN STRESS PERIOD    5
  ---------------------------------------------------------------------------

            1           2           3           4           5           6           7           8           9          10
 ........................................................................................................................
   1    0.000      0.3474      0.4858      0.5322     -1.0000E+30 -1.0000E+30 -1.0000E+30 -1.0000E+30  0.2913       0.000    
   2    0.000      0.3483      0.4879      0.5373      0.5265     -1.0000E+30 -1.0000E+30 -1.0000E+30  0.2929       0.000    
   3    0.000      0.3496      0.4900      0.5386     -1.0000E+30 -1.0000E+30 -1.0000E+30 -1.0000E+30  0.2959       0.000    
   4    0.000      0.3513      0.4931      0.5431     -1.0000E+30 -1.0000E+30 -1.0000E+30 -1.0000E+30  0.2999       0.000    
   5    0.000      0.3529      0.4966      0.5494     -1.0000E+30 -1.0000E+30 -1.0000E+30 -1.0000E+30  0.3037       0.000    
   6    0.000      0.3536      0.4983      0.5528     -1.0000E+30 -1.0000E+30 -1.0000E+30 -1.0000E+30  0.3055       0.000    
   7    0.000      0.3529      0.4965      0.5489     -1.0000E+30 -1.0000E+30 -1.0000E+30 -1.0000E+30  0.3041       0.000    
   8    0.000      0.3513      0.4926      0.5416     -1.0000E+30 -1.0000E+30 -1.0000E+30 -1.0000E+30  0.3009       0.000    
   9    0.000      0.3496      0.4889      0.5350     -1.0000E+30 -1.0000E+30 -1.0000E+30 -1.0000E+30  0.2977       0.000    
  10    0.000      0.3486      0.4868      0.5314     -1.0000E+30 -1.0000E+30 -1.0000E+30 -1.0000E+30  0.2959       0.000    
1
          DRAWDOWN IN LAYER   2 AT END OF TIME STEP   1 IN STRESS PERIOD    5
  ---------------------------------------------------------------------------

            1           2           3           4           5           6           7           8           9          10
 ........................................................................................................................
   1    0.000      0.2234      0.3511      0.4011      0.3775      0.3412      0.2966      0.2411      0.1710       0.000    
   2    0.000      0.2248      0.3542      0.4083      0.4003      0.3515      0.3038      0.2461      0.1735       0.000    
   3    0.000      0.2270      0.3582      0.4122      0.3941      0.3619      0.3160      0.2555      0.1783       0.000    
   4    0.000      0.2299      0.3638      0.4210      0.4067      0.3815      0.3344      0.2683      0.1847       0.000    
   5    0.000      0.2326      0.3696      0.4318      0.4257      0.4078      0.3556      0.2817      0.1908       0.000    
   6    0.000      0.2339      0.3725      0.4378      0.4382      0.4281      0.3690      0.2890      0.1940       0.000    
   7    0.000      0.2329      0.3700      0.4321      0.4264      0.4092      0.3574      0.2834      0.1919       0.000    
   8    0.000      0.2305      0.3644      0.4213      0.4073      0.3840      0.3381      0.2720      0.1869       0.000    
   9    0.000      0.2280      0.3589      0.4115      0.3915      0.3648      0.3221      0.2616      0.1820       0.000    
  10    0.000      0.2265      0.3557      0.4060      0.3830      0.3549      0.3135      0.2557      0.1792       0.000    
1
          DRAWDOWN IN LAYER   3 AT END OF TIME STEP   1 IN STRESS PERIOD    5
  ---------------------------------------------------------------------------

            1           2           3           4           5           6           7           8           9          10
 ........................................................................................................................
   1   0.1783      0.2489      0.3135      0.3497      0.3535      0.3364      0.3049      0.2625      0.2124      0.1573    
   2   0.1803      0.2518      0.3182      0.3572      0.3650      0.3480      0.3149      0.2700      0.2175      0.1608    
   3   0.1838      0.2571      0.3268      0.3703      0.3829      0.3715      0.3357      0.2850      0.2273      0.1673    
   4   0.1881      0.2639      0.3387      0.3910      0.4164      0.4170      0.3712      0.3077      0.2406      0.1757    
   5   0.1920      0.2705      0.3513      0.4167      0.4676      0.5011      0.4235      0.3348      0.2545      0.1837    
   6   0.1939      0.2738      0.3585      0.4347      0.5181      0.6313      0.4745      0.3535      0.2623      0.1879    
   7   0.1932      0.2718      0.3529      0.4185      0.4697      0.5036      0.4263      0.3375      0.2569      0.1857    
   8   0.1906      0.2668      0.3420      0.3947      0.4207      0.4223      0.3772      0.3135      0.2457      0.1800    
   9   0.1878      0.2618      0.3321      0.3763      0.3895      0.3804      0.3459      0.2948      0.2356      0.1741    
  10   0.1861      0.2588      0.3266      0.3668      0.3749      0.3626      0.3312      0.2851      0.2299      0.1707    
1
          DRAWDOWN IN LAYER   4 AT END OF TIME STEP   1 IN STRESS PERIOD    5
  ---------------------------------------------------------------------------

            1           2           3           4           5           6           7           8           9          10
 ........................................................................................................................
   1   0.2378      0.2705      0.3091      0.3363      0.3449      0.3357      0.3119      0.2786      0.2430      0.2151    
   2   0.2406      0.2743      0.3149      0.3450      0.3569      0.3493      0.3239      0.2877      0.2495      0.2201    
   3   0.2457      0.2813      0.3260      0.3626      0.3827      0.3813      0.3506      0.3065      0.2621      0.2295    
   4   0.2519      0.2904      0.3417      0.3907      0.4310      0.4512      0.3998      0.3360      0.2796      0.2415    
   5   0.2576      0.2992      0.3587      0.4280      0.5173      0.6358      0.4869      0.3743      0.2982      0.2530    
   6   0.2604      0.3038      0.3691      0.4596      0.6471       1.311      0.6170      0.4066      0.3095      0.2591    
   7   0.2594      0.3012      0.3610      0.4306      0.5203      0.6392      0.4903      0.3777      0.3014      0.2559    
   8   0.2558      0.2947      0.3465      0.3963      0.4374      0.4584      0.4074      0.3432      0.2863      0.2477    
   9   0.2518      0.2882      0.3340      0.3721      0.3937      0.3937      0.3635      0.3187      0.2730      0.2394    
  10   0.2494      0.2844      0.3272      0.3601      0.3748      0.3698      0.3445      0.3065      0.2657      0.2345    
1
          DRAWDOWN IN LAYER   5 AT END OF TIME STEP   1 IN STRESS PERIOD    5
  ---------------------------------------------------------------------------

            1           2           3           4           5           6           7           8           9          10
 ........................................................................................................................
   1   0.2617      0.2822      0.3101      0.3326      0.3421      0.3361      0.3162      0.2880      0.2594      0.2401    
   2   0.2649      0.2865      0.3164      0.3419      0.3546      0.3503      0.3289      0.2978      0.2666      0.2458    
   3   0.2707      0.2943      0.3287      0.3610      0.3817      0.3825      0.3567      0.3179      0.2804      0.2564    
   4   0.2778      0.3044      0.3456      0.3900      0.4281      0.4428      0.4037      0.3481      0.2993      0.2699    
   5   0.2842      0.3140      0.3633      0.4249      0.4953      0.5490      0.4714      0.3841      0.3187      0.2826    
   6   0.2875      0.3189      0.3731      0.4486      0.5579      0.7006      0.5343      0.4084      0.3295      0.2892    
   7   0.2864      0.3164      0.3659      0.4280      0.4988      0.5527      0.4753      0.3879      0.3223      0.2861    
   8   0.2824      0.3094      0.3513      0.3966      0.4356      0.4510      0.4121      0.3562      0.3069      0.2771    
   9   0.2780      0.3024      0.3381      0.3722      0.3947      0.3967      0.3710      0.3314      0.2927      0.2678    
  10   0.2752      0.2982      0.3308      0.3596      0.3756      0.3734      0.3518      0.3186      0.2848      0.2623    

 DRAWDOWN WILL BE SAVED ON UNIT   52 AT END OF TIME STEP    1, STRESS PERIOD    5
1
  VOLUMETRIC BUDGET FOR ENTIRE MODEL AT END OF TIME STEP    1, STRESS PERIOD   5
  ------------------------------------------------------------------------------

     CUMULATIVE VOLUMES      L**3       RATES FOR THIS TIME STEP      L**3/T
     ------------------                 ------------------------

           IN:                                      IN:
           ---                                      ---
             STORAGE =           0.6973               STORAGE =           0.6815
       CONSTANT HEAD =         541.2275         CONSTANT HEAD =         102.0882
               WELLS =           0.0000                 WELLS =           0.0000

            TOTAL IN =         541.9248              TOTAL IN =         102.7697

          OUT:                                     OUT:
          ----                                     ----
             STORAGE =         431.9221               STORAGE =          62.7690
       CONSTANT HEAD =       9.8165E-04         CONSTANT HEAD =           0.0000
               WELLS =         110.0000                 WELLS =          40.0000

           TOTAL OUT =         541.9231             TOTAL OUT =         102.7690

            IN - OUT =       1.7090E-03              IN - OUT =       6.6376E-04

 PERCENT DISCREPANCY =           0.00     PERCENT DISCREPANCY =           0.00






         TIME SUMMARY AT END OF TIME STEP    1 IN STRESS PERIOD    5
                    SECONDS     MINUTES      HOURS       DAYS        YEARS
                    -----------------------------------------------------------
   TIME STEP LENGTH  86400.      1440.0      24.000      1.0000     2.73785E-03
 STRESS PERIOD TIME  86400.      1440.0      24.000      1.0000     2.73785E-03
         TOTAL TIME 4.32000E+05  7200.0      120.00      5.0000     1.36893E-02
1

 Run end date and time (yyyy/mm/dd hh:mm:ss): 2019/01/14 14:09:50
 Elapsed run time:  0.017 Seconds

